19
gdb 134	2.571738	1.9397883	1.9248291	2.2137	72.45	-0.24657	0.08123	0.3278	872.3846	0.161239	-422.55299	-422.546485	-422.545541	-422.5834	27.396	
C	 0.7306797776	 0.371601577	 3.419315816	-0.322222
C	 0.8214293394	-0.9047099662	 2.6166558107	-0.031648
C	 1.012698714	 0.437702205	 1.9433130808	-0.048834
C	-0.1432705364	 0.6459549331	 0.9704897925	 0.194373
O	-0.0679212564	-0.3396810996	-0.0483887613	-0.273078
C	-0.1326894246	-1.6693387889	 0.4911335452	-0.056265
C	-0.4008465479	-1.5901930552	 2.0072984984	-0.092205
C	-1.6487364006	-0.7179990866	 2.1715041005	-0.081187
O	-1.3926596713	 0.587168492	 1.6307330428	-0.27056
H	-0.2257188065	 0.7319884606	 3.7763434448	 0.13089
H	 1.5634772466	 0.5739201859	 4.0839048034	 0.110357
H	 1.6866813605	-1.5393780172	 2.7795845729	 0.087626
H	 1.989569887	 0.7476107882	 1.5887728653	 0.09156
H	-0.1148252503	 1.6091339846	 0.4585330495	 0.08881
H	-0.9425296851	-2.2012730797	-0.0246752382	 0.100157
H	 0.8097302855	-2.1941056896	 0.2831863106	 0.094219
H	-0.5786227989	-2.5863687279	 2.4226239788	 0.073772
H	-2.4971716693	-1.1649269698	 1.6354879055	 0.100976
H	-1.9331711232	-0.6097226555	 3.2247307518	 0.103258
193.9549	301.086	333.4579	346.9087	432.1701	528.9663	580.6725	590.2312	683.2543	749.6847	820.3075	835.1725	877.778	892.2349	909.1374	953.3871	958.8616	963.4582	1009.5289	1034.6689	1057.9058	1078.425	1084.3645	1110.4866	1118.0356	1130.2372	1164.29	1206.3418	1224.323	1229.2056	1297.1103	1331.1561	1338.3192	1355.9304	1363.9163	1392.1932	1405.2795	1421.746	1493.2805	1519.7296	1533.24	3001.9183	3007.2524	3040.3181	3049.1213	3068.7482	3105.1543	3143.7874	3154.0578	3171.2908	3232.2741
C1C2C1C1OCC2CO1	C1[C@@H]2[C@H]1[C@H]1OC[C@@H]2CO1	
InChI=1S/C7H10O2/c1-5-4-2-8-7(6(1)5)9-3-4/h4-7H,1-3H2	InChI=1S/C7H10O2/c1-5-4-2-8-7(6(1)5)9-3-4/h4-7H,1-3H2/t4-,5-,6-,7+/m0/s1
