19
gdb 188	3.9460512	1.2626536	1.180539	1.6183	74.2	-0.23516	0.07474	0.3099	1100.6586	0.157958	-422.515297	-422.507671	-422.506727	-422.548094	29.558	
C	-0.0782319862	 0.2502104417	-0.7815129674	-0.307821
C	 1.2244799144	-0.1677929965	-0.1782308073	 0.099496
O	 2.2826819822	-0.08146473	-1.136347455	-0.331805
C	 2.1035294269	 1.3700621588	-1.2275504546	 0.417231
C	 1.9470609181	 1.9220602848	-2.6590365183	-0.294767
C	 3.2149703276	 2.7661072503	-2.8599211025	-0.087772
O	 3.5599663853	 3.2181886934	-1.555497386	-0.243511
C	 3.3512730622	 2.1122324878	-0.6975345083	-0.1455
C	 0.9003314048	 1.2985536478	-0.2855709577	-0.193879
H	-0.251768111	 0.1030342267	-1.84348181	 0.117042
H	-0.9516883215	 0.119823808	-0.1494369758	 0.115242
H	 1.354201845	-0.837745302	 0.6632030084	 0.105063
H	 1.8485241117	 1.1088417775	-3.3803897547	 0.11901
H	 1.0516986286	 2.5476026043	-2.7174699925	 0.114446
H	 4.0289264058	 2.1559951886	-3.2841431277	 0.09515
H	 3.0731516258	 3.6438756853	-3.4945306537	 0.109728
H	 4.1964033267	 1.4064112151	-0.7309200617	 0.102553
H	 3.2425023362	 2.4859653863	 0.3237757458	 0.108196
H	 0.6545636773	 2.0337279822	 0.4694123389	 0.101897
34.2749	157.4497	220.8824	281.1978	364.8225	415.3043	466.1585	511.3342	639.604	738.6784	762.5107	801.0291	838.4467	878.4445	908.9276	951.5873	965.9505	972.9166	981.7303	1013.1384	1023.1447	1045.0528	1058.9663	1084.1534	1098.2371	1121.8789	1157.807	1162.4031	1215.8001	1230.1234	1240.7241	1275.1255	1287.1461	1329.4574	1351.8953	1358.829	1397.6429	1471.9739	1475.9809	1500.8339	1519.7671	2974.1991	2984.1808	3064.0094	3094.0007	3101.4579	3117.5639	3124.7362	3183.6746	3197.7724	3210.1231
C1C2OC3(CCOC3)C12	C1[C@H]2O[C@@]3(CCOC3)[C@@H]12	
InChI=1S/C7H10O2/c1-2-8-4-7(1)5-3-6(5)9-7/h5-6H,1-4H2	InChI=1S/C7H10O2/c1-2-8-4-7(1)5-3-6(5)9-7/h5-6H,1-4H2/t5-,6+,7+/m0/s1
