19
gdb 305	2.6316304	1.9438329	1.4409157	2.1449	73.82	-0.23938	0.07472	0.3141	953.172	0.159664	-422.522075	-422.515017	-422.514072	-422.553408	28.354	
C	 2.5234140573	 1.5683866834	 1.5931751117	-0.301744
C	 1.2615249563	 2.289875315	 1.9357060982	 0.095254
O	 0.6425373365	 3.0264140362	 0.9204121176	-0.251012
C	-0.6681865774	 2.5449952037	 0.6366275291	-0.10084
C	-0.6055058048	 1.1736218734	-0.0203675422	-0.084052
C	 0.2314883665	 1.0818596058	-1.310938693	-0.079762
O	 1.2369959838	 0.2779343204	-0.65935826	-0.284685
C	 0.4936209426	 0.2432651886	 0.5816852906	 0.113056
C	 1.2416210521	 0.783193752	 1.7859557161	-0.088063
H	 2.8766240501	 1.6552047753	 0.5731920449	 0.142208
H	 3.290886498	 1.4827746794	 2.3539364871	 0.110608
H	 1.1449466511	 2.7227429847	 2.928692377	 0.08414
H	-1.2704530117	 2.5066047403	 1.5574906653	 0.092023
H	-1.124921279	 3.2807557803	-0.0334372845	 0.109838
H	-1.6007347644	 0.7277894643	-0.0814363356	 0.076557
H	-0.2418492018	 0.5479036401	-2.1437615548	 0.097132
H	 0.6440069339	 2.0307704778	-1.673402251	 0.109361
H	 0.1460103153	-0.7752842684	 0.7907233857	 0.074761
H	 1.1505193957	 0.1931387676	 2.6917509677	 0.08522
111.1465	193.5953	257.5459	336.9303	400.8657	463.4743	508.781	572.2696	686.8731	766.2449	786.1017	801.864	834.6513	886.6528	913.4632	953.1805	977.9885	1004.8619	1006.569	1026.8975	1057.7799	1076.0371	1103.5833	1121.5104	1124.1109	1133.0899	1170.1122	1171.3175	1224.6395	1240.4319	1266.834	1310.5216	1338.6958	1341.0021	1368.7651	1376.8533	1398.666	1416.0988	1473.5083	1493.5531	1518.8056	2986.6371	3016.5001	3025.4947	3062.1199	3074.8668	3087.6265	3104.5958	3145.1147	3161.0386	3242.8667
C1C2OCC3COC3C12	C1[C@H]2OC[C@H]3CO[C@H]3[C@@H]12	
InChI=1S/C7H10O2/c1-5-6(1)8-2-4-3-9-7(4)5/h4-7H,1-3H2	InChI=1S/C7H10O2/c1-5-6(1)8-2-4-3-9-7(4)5/h4-7H,1-3H2/t4-,5-,6+,7+/m0/s1
