19
gdb 361	5.1305725	0.9100276	0.8372426	3.0699	76.26	-0.23405	0.07076	0.30481	1391.0891	0.157316	-422.481321	-422.473282	-422.472338	-422.514811	29.676	
C	 0.6749202623	-2.0424867886	 3.853389382	-0.061961
C	 1.3312637069	-0.7000544465	 3.4792804067	-0.297595
C	 1.2325397514	-1.2233294829	 2.0252653089	 0.133364
O	 0.4783142641	-2.3819945375	 2.4649150888	-0.293526
C	 0.4936871309	-0.4009636529	 1.0133295354	-0.050985
C	 1.3458556907	 0.4726468683	 0.1039642252	-0.150082
C	 0.4338223948	 1.2220141846	-0.8606997537	-0.097932
O	-0.2273758581	-0.0113014597	-1.2570407288	-0.289805
C	 0.6648139506	-0.76289843	-0.432869452	 0.094706
H	 1.3397157129	-2.7557093119	 4.358275076	 0.09952
H	-0.2726831459	-1.994719607	 4.4017701145	 0.106322
H	 0.7074603692	 0.1754001907	 3.6705125087	 0.1116
H	 2.335791416	-0.5188379916	 3.8639619873	 0.10917
H	 2.205954372	-1.5338634421	 1.6144467428	 0.066209
H	-0.4839725806	-0.0416837752	 1.3310457292	 0.08932
H	 2.389601601	 0.6848256827	 0.2935362668	 0.09998
H	-0.2650716693	 1.9554148501	-0.4411210239	 0.106523
H	 0.9652583995	 1.6601593175	-1.7129993392	 0.111482
H	 1.0277784717	-1.7153315381	-0.8017032146	 0.113691
70.81	81.0006	129.9788	191.5917	326.5039	338.8918	419.4801	486.1009	746.0276	764.7357	801.8928	841.5604	887.2279	903.1299	950.1298	953.9554	964.9475	990.161	1007.9179	1015.5035	1024.5696	1041.0615	1084.8512	1090.905	1103.5033	1159.3355	1161.4658	1166.0288	1206.3444	1223.4273	1246.8223	1255.1809	1259.1981	1284.3333	1322.8186	1358.239	1376.2852	1445.9533	1489.8762	1515.0343	1533.7733	2975.9929	3012.5352	3023.3938	3057.598	3072.6899	3077.982	3120.36	3134.4739	3179.9223	3201.543
C1CC(O1)C1C2COC12	C1C[C@@H](O1)[C@H]1[C@@H]2CO[C@H]12	
InChI=1S/C7H10O2/c1-2-8-5(1)6-4-3-9-7(4)6/h4-7H,1-3H2	InChI=1S/C7H10O2/c1-2-8-5(1)6-4-3-9-7(4)6/h4-7H,1-3H2/t4-,5+,6+,7-/m0/s1
