19
gdb 358	4.4258011	0.9339191	0.8785329	2.0645	78.45	-0.23195	0.00965	0.24159999999999998	1354.2517	0.157798	-422.526791	-422.518355	-422.517411	-422.561374	29.846	
C	-0.2293083427	-0.9315070371	 2.6595577403	-0.086735
O	 0.0859619856	-2.3229701547	 2.4717954073	-0.269426
C	-0.3429104182	-2.2836443744	 1.0987194991	-0.08669
C	-0.8864243178	-0.8348217445	 1.2534471188	-0.153638
C	-0.4352530027	 0.2206736127	 0.3058473027	 0.316129
C	-1.1933553202	 1.0741279709	-0.3807334727	-0.226214
C	-0.3412927202	 1.9751700284	-1.2234032006	-0.101805
O	 0.9996963889	 1.5669474861	-0.9647555764	-0.264336
C	 1.0143496579	 0.4920871838	-0.0329797439	-0.158206
H	-0.8955703162	-0.7680637454	 3.5141324102	 0.107968
H	 0.6724796738	-0.3188667848	 2.7902795555	 0.102876
H	 0.4986092218	-2.3883114527	 0.4012085417	 0.102874
H	-1.0877245085	-3.0553644105	 0.8737534771	 0.107976
H	-1.976219351	-0.8221192899	 1.3217938872	 0.084968
H	-2.2747465227	 1.133465618	-0.3550801808	 0.100463
H	-0.5608560028	 1.8800655379	-2.2991357948	 0.105674
H	-0.4656436129	 3.0389241245	-0.9637636307	 0.105674
H	 1.5118220911	-0.3826975714	-0.4814114891	 0.106233
H	 1.6067787068	 0.7744895731	 0.8519426591	 0.106214
52.7068	58.7592	96.3196	161.2769	220.4992	323.535	378.5358	521.3504	572.2066	764.7389	815.3354	825.2367	886.0182	895.072	921.9789	944.1084	973.3365	997.4478	1019.9636	1033.4159	1045.9151	1065.4632	1101.5364	1119.7309	1160.7773	1166.2038	1176.2959	1221.6785	1227.6694	1256.147	1297.3102	1309.0068	1351.9865	1372.0361	1391.0834	1398.1352	1514.0943	1516.444	1529.1809	1541.0448	1721.7729	2965.577	2973.3402	2981.7588	2984.3783	3008.4974	3018.9387	3056.6468	3060.2733	3088.6112	3208.2312
C1OCC1C1=CCOC1	C1OCC1C1=CCOC1	
InChI=1S/C7H10O2/c1-2-8-3-6(1)7-4-9-5-7/h1,7H,2-5H2	InChI=1S/C7H10O2/c1-2-8-3-6(1)7-4-9-5-7/h1,7H,2-5H2
