19
gdb 335	2.6696987	1.8295832	1.2910353	0.7773	74.68	-0.22743	0.07536	0.30279	1003.4733	0.159022	-422.519286	-422.511968	-422.511024	-422.550862	29.12	
C	-1.0426184899	-0.92476839	 0.4578409986	-0.368619
C	-0.2953011949	-0.2020841086	 1.5791541979	-0.133446
C	-0.9563449472	 0.8698522632	 2.4309288569	-0.096858
O	-1.5313910077	 1.9218666233	 1.6638510289	-0.249094
C	-0.6014685079	 2.5172342486	 0.7684860147	-0.105155
C	-0.3278774802	 1.5494585367	-0.3806361135	-0.133094
C	 1.0891936354	 1.3965084732	-0.9821396656	-0.111284
O	 1.1648422977	 0.0088435787	-0.5596700518	-0.316286
C	-0.0651492956	 0.1466479754	 0.1410434243	 0.47371
H	-0.7441842524	-1.9515090636	 0.2740707117	 0.12269
H	-2.0969201734	-0.7155416891	 0.2984578394	 0.11958
H	 0.473489357	-0.7854690575	 2.0766189642	 0.098841
H	-1.7774746318	 0.4651189875	 3.0321716398	 0.110414
H	-0.2048151713	 1.2884839028	 3.1217973009	 0.091088
H	-1.0558447421	 3.4524498024	 0.4302191406	 0.109291
H	 0.3349670624	 2.7619042044	 1.2974372077	 0.087175
H	-1.1177146282	 1.5992288674	-1.1341012911	 0.088404
H	 1.1742147992	 1.4917399394	-2.0689661754	 0.110205
H	 1.863894681	 2.0068034257	-0.5001906683	 0.102436
107.7724	196.9802	261.2119	344.7531	369.3271	382.281	452.845	516.3626	566.5715	693.4248	770.7234	798.8757	853.8853	888.8129	901.0394	936.4128	952.4618	995.0582	1003.996	1043.982	1049.0704	1081.5558	1107.0737	1110.774	1130.6815	1147.2274	1173.9693	1209.8227	1234.937	1265.3983	1308.1429	1320.598	1331.6805	1377.212	1387.9716	1404.9437	1418.0271	1481.5133	1492.2447	1499.3887	1525.9699	2959.6537	2966.2679	3017.2139	3064.6531	3068.276	3081.0894	3093.3418	3118.7768	3160.2487	3212.0896
C1C2COCC3COC123	C1[C@@H]2COC[C@H]3CO[C@@]123	
InChI=1S/C7H10O2/c1-5-2-8-3-6-4-9-7(1,5)6/h5-6H,1-4H2	InChI=1S/C7H10O2/c1-5-2-8-3-6-4-9-7(1,5)6/h5-6H,1-4H2/t5-,6+,7+/m1/s1
