19
gdb 336	2.6317353	1.8378657	1.2880174	1.8207	74.62	-0.23736	0.06522	0.30257999999999996	1004.7579	0.159198	-422.519393	-422.512089	-422.511145	-422.550949	28.976	
C	 1.2240457912	 0.1946560646	-2.8755724398	-0.367977
C	 2.072123313	 1.2119733593	-2.1388194313	-0.100544
C	 3.4810029623	 0.8857634742	-1.6662458066	-0.094907
O	 3.545852833	-0.2904702347	-0.8717344713	-0.249771
C	 2.6790719977	-0.2339479955	 0.2557155477	-0.112161
C	 1.2448963619	-0.3965978986	-0.2412720576	 0.08031
O	 0.2263209859	 0.2888456284	 0.5279512571	-0.303304
C	-0.2149286327	 1.0387354285	-0.632906512	-0.162874
C	 0.9553284185	 0.4950370435	-1.4390338005	 0.291234
H	 0.5355306194	 0.5717161637	-3.6251526103	 0.114187
H	 1.6603793133	-0.7732277957	-3.106245982	 0.122409
H	 1.9115987027	 2.2536611811	-2.4043059312	 0.089938
H	 4.1590938573	 0.7111357237	-2.508186949	 0.111435
H	 3.8703388028	 1.7415232676	-1.0891158086	 0.092262
H	 2.9907331555	-1.037156731	 0.9283274448	 0.109409
H	 2.7731378448	 0.7272926511	 0.7844078486	 0.095588
H	 0.990071413	-1.4561572014	-0.378800634	 0.077202
H	-1.2089274584	 0.7141300105	-0.9700838301	 0.102715
H	-0.232836921	 2.1189766208	-0.4442002636	 0.104849
113.7937	196.866	264.9337	319.2714	371.171	387.0247	453.9981	506.4416	565.1008	693.5744	783.4759	807.876	859.0204	885.5617	915.3546	944.0422	973.9009	1005.6191	1033.3417	1060.7775	1071.3088	1086.5917	1110.7746	1113.3985	1130.1772	1143.6991	1154.5845	1227.6286	1248.8544	1260.3284	1304.8017	1315.6388	1341.862	1370.8803	1387.2483	1411.121	1433.0469	1488.9077	1497.2367	1502.3541	1524.2642	2962.287	2989.8441	3001.3477	3012.7932	3050.8071	3067.9432	3096.4905	3118.6512	3143.0271	3206.0196
C1C2COCC3OCC123	C1[C@@H]2COC[C@H]3OC[C@@]123	
InChI=1S/C7H10O2/c1-5-2-8-3-6-7(1,5)4-9-6/h5-6H,1-4H2	InChI=1S/C7H10O2/c1-5-2-8-3-6-7(1,5)4-9-6/h5-6H,1-4H2/t5-,6-,7+/m1/s1
