19
gdb 156	4.7454664	1.0008223	0.9046984	2.6032	74.99	-0.23805	0.07663	0.31468	1300.4439	0.157344	-422.482628	-422.474623	-422.473679	-422.516138	29.61	
C	-0.1527322911	-0.3519482131	-0.5987751418	-0.306302
C	 1.316885267	-0.295972988	-0.3309798757	 0.109311
O	 2.0468369701	-0.0355510628	-1.5324154271	-0.305872
C	 1.4003940721	 1.2708361689	-1.6529935056	 0.118102
C	 0.5309220778	 0.9900065728	-0.4271117048	-0.143504
C	 2.4128858464	 2.3837898314	-1.5041247037	-0.039422
C	 1.8935845134	 3.7938366775	-1.8700147949	-0.09287
O	 2.6830398108	 3.8207494221	-3.0745126442	-0.272001
C	 3.3399264767	 2.5831550266	-2.7228682059	-0.088327
H	-0.5065079277	-0.6730195067	-1.5747622416	 0.11808
H	-0.7726051223	-0.6528435798	 0.2403880961	 0.116655
H	 1.834602062	-0.7906184083	 0.4825066797	 0.104487
H	 0.8722333411	 1.3607736902	-2.6125753929	 0.087013
H	 0.2512738747	 1.7121221071	 0.3284342118	 0.100584
H	 2.9184920661	 2.300685149	-0.5398034017	 0.08048
H	 0.8188153595	 3.8787148558	-2.0780531702	 0.101516
H	 2.1816083024	 4.5885861007	-1.1696109473	 0.098683
H	 3.2627480465	 1.8309779905	-3.5164741649	 0.113483
H	 4.3984175145	 2.7367461862	-2.4783545452	 0.099905
66.4395	71.6148	153.6493	168.537	311.4793	393.613	440.882	483.3039	755.8107	787.8577	830.222	858.0737	865.7709	882.704	933.5255	948.1311	965.8989	983.3853	1018.2854	1024.6667	1040.2855	1047.0226	1057.8107	1072.9755	1084.9282	1091.9595	1155.7619	1162.4606	1201.9267	1209.5766	1240.6194	1248.3569	1298.2365	1306.2283	1310.1	1356.3552	1380.1213	1419.0238	1474.3245	1513.4873	1538.916	3002.7467	3010.7261	3019.2249	3044.1093	3062.818	3091.3704	3114.7158	3180.3422	3198.7293	3210.1436
C1C2OC(C12)C1COC1	C1[C@H]2O[C@@H]([C@@H]12)C1COC1	
InChI=1S/C7H10O2/c1-5-6(1)9-7(5)4-2-8-3-4/h4-7H,1-3H2	InChI=1S/C7H10O2/c1-5-6(1)9-7(5)4-2-8-3-4/h4-7H,1-3H2/t5-,6+,7+/m0/s1
