19
gdb 159	3.1784025	1.7998472	1.4773855	3.0217	73.86	-0.24932	0.08222	0.33154	935.0197	0.160139	-422.537048	-422.530238	-422.529294	-422.568294	27.694	
C	-0.211844681	-0.8181699123	 0.4509494424	-0.262616
C	 0.2328618729	-0.1758034146	 1.7742138395	 0.09965
C	-0.7678819969	 0.9897724941	 1.4558293305	-0.337082
C	-0.2395286207	 0.6893780845	 0.024253773	 0.293628
C	-0.4718643505	 1.1090810561	-1.4067179317	-0.400784
C	 0.9121203039	 0.7091113846	-2.0239869418	-0.071711
O	 1.8680189914	 0.5753497918	-0.9483205031	-0.290355
C	 1.2349299958	 1.0329485773	 0.2251233947	 0.247448
O	 1.5396769662	 0.3528533897	 1.4306402754	-0.294403
H	 0.500961117	-1.4852545863	-0.0349477338	 0.117775
H	-1.2153643051	-1.2479836301	 0.4810707785	 0.096281
H	 0.2810747296	-0.6895684384	 2.7323236652	 0.085647
H	-1.8076649802	 0.7044791424	 1.6248808589	 0.106603
H	-0.5561164904	 1.9714269747	 1.8872557475	 0.105348
H	-1.3013739876	 0.5988315698	-1.9013591457	 0.109573
H	-0.6371597935	 2.1883651722	-1.4905375721	 0.111713
H	 0.8562255684	-0.2522568171	-2.5455549821	 0.112593
H	 1.2691620432	 1.461563749	-2.7359360815	 0.107255
H	 1.4496955974	 2.1038455228	 0.3657715363	 0.063437
77.4506	215.9166	308.1367	379.3272	488.167	504.6783	547.0219	638.8073	704.2275	713.8489	819.7137	837.2882	870.518	896.6058	907.3773	931.1423	956.0483	972.0691	994.2224	998.0528	1043.852	1054.6524	1083.5989	1107.0787	1130.7679	1172.814	1178.7353	1216.9169	1223.7207	1233.7118	1259.6884	1278.0298	1298.5511	1320.0282	1359.4737	1385.4262	1410.6668	1473.8623	1494.1661	1512.0105	1524.669	2976.9723	3032.6843	3050.9388	3066.7534	3070.4049	3076.8871	3108.8591	3134.5542	3145.612	3147.8069
C1C2CC11CCOC1O2	C1[C@@H]2C[C@@]31CCO[C@@H]3O2	
InChI=1S/C7H10O2/c1-2-8-6-7(1)3-5(4-7)9-6/h5-6H,1-4H2	InChI=1S/C7H10O2/c1-2-8-6-7(1)3-5(4-7)9-6/h5-6H,1-4H2/t5-,6-,7+/m1/s1
