19
gdb 98	4.4585124	0.961355	0.9039394	2.0844	75.98	-0.2321	0.0742	0.3063	1335.3542	0.156232	-422.485263	-422.476867	-422.475923	-422.519334	31.046	
C	-0.8077132655	-0.327385729	 1.1201993254	-0.353827
C	 0.5700025352	 0.2709241134	 0.9288703967	 0.109643
C	 0.8596703592	 1.2297177245	-0.1426048321	-0.184659
O	 1.2806474824	-0.1320733639	-0.2450992506	-0.234754
C	-0.7394262005	-1.7033222446	 1.7094746602	 0.49991
C	-0.4376701978	-2.9798645955	 0.9895515958	-0.315703
C	-1.6969818011	-2.8702106923	 1.8312189962	-0.209211
C	-1.3002143341	-2.8723478747	 3.3016196369	-0.08395
O	-0.3324705249	-1.8089755626	 3.0854374773	-0.329837
H	-1.3958607919	 0.3209504964	 1.7820734709	 0.110999
H	-1.3144911409	-0.3711520119	 0.1504220975	 0.110288
H	 1.1857457782	 0.3060649501	 1.8281463916	 0.110784
H	 0.0642840329	 1.525703475	-0.8264149337	 0.109765
H	 1.6576252649	 1.9605182722	-0.018663207	 0.115006
H	-0.6035850859	-2.9606654129	-0.0827036249	 0.120558
H	 0.3934522018	-3.598962687	 1.3166572489	 0.114411
H	-2.6937190103	-3.0147440951	 1.4364230617	 0.099111
H	-2.0951077957	-2.5355275321	 3.9769141987	 0.107013
H	-0.8359373559	-3.7814915399	 3.7026142404	 0.104453
46.2255	68.4489	124.1704	229.0034	325.8094	349.6029	381.6279	451.0322	456.6967	715.9841	746.1625	785.3552	839.5202	864.3488	885.6179	922.0691	954.124	963.3284	977.5291	993.9081	1011.0612	1017.9284	1070.6915	1071.114	1101.0366	1132.031	1157.7597	1161.4583	1172.2597	1188.2664	1262.5398	1267.3538	1291.416	1331.0328	1345.998	1404.3452	1444.6374	1452.5463	1489.6473	1521.1262	1531.3581	3020.8791	3029.0275	3068.5021	3079.1533	3083.9877	3113.7512	3116.7002	3165.0895	3198.7068	3212.2218
C(C1CO1)C12CC1CO2	C([C@@H]1CO1)[C@]12C[C@H]1CO2	
InChI=1S/C7H10O2/c1-5-3-9-7(1,5)2-6-4-8-6/h5-6H,1-4H2	InChI=1S/C7H10O2/c1-5-3-9-7(1,5)2-6-4-8-6/h5-6H,1-4H2/t5-,6+,7+/m0/s1
