19
gdb 242	3.3865479	1.5792489	1.2979234	1.5687	73.07	-0.24898	0.07987	0.32885	1004.4119	0.160241	-422.558739	-422.551683	-422.550739	-422.590416	27.923	
C	 0.4585494644	 0.8642280792	-0.9268044924	-0.295098
C	 0.918961407	-0.2967158202	-0.0829554853	-0.028045
C	 2.339359579	-0.7895800792	-0.3092671311	-0.258922
C	 3.2757687713	 0.4302068659	-0.0780267758	 0.065641
O	 4.2908459487	 0.185497415	 0.8901640082	-0.248327
C	 3.7098480813	 0.5048017725	 2.1299777619	 0.009412
O	 2.8860985615	 1.6285551512	 1.9185063677	-0.263135
C	 2.4105881464	 1.5596012854	 0.5736909585	 0.084299
C	 0.9673260997	 1.1117622536	 0.4718969722	-0.06304
H	 1.0709541633	 1.1755890845	-1.7695999537	 0.10811
H	-0.6067035898	 0.9764646996	-1.095507805	 0.11481
H	 0.1743828489	-1.0055935365	 0.2618439175	 0.086107
H	 2.6006628574	-1.5664534319	 0.4167879036	 0.112834
H	 2.4836034966	-1.2209770632	-1.3051840683	 0.103378
H	 3.7825793367	 0.7459919607	-0.9912822675	 0.0907
H	 3.1179285773	-0.3437482863	 2.5194681849	 0.081133
H	 4.5021509758	 0.7614479155	 2.8394054758	 0.118477
H	 2.5768944397	 2.5436492253	 0.1225159414	 0.086804
H	 0.2800842248	 1.4615055291	 1.2328830274	 0.094862
75.1774	181.482	242.292	323.1932	411.3634	446.8272	588.2258	649.1191	739.9943	784.9254	811.8257	828.6192	840.741	883.9083	893.9103	942.2898	976.5438	1000.132	1031.0679	1046.1476	1060.6805	1077.5135	1095.9087	1111.3538	1116.1453	1124.6322	1185.7037	1197.5229	1212.7879	1229.4404	1265.5424	1302.8255	1311.4241	1344.2676	1358.3009	1372.6795	1390.3889	1431.1327	1486.881	1496.4941	1545.3379	2931.6819	3044.7043	3047.6107	3080.2447	3083.0329	3101.2594	3115.988	3168.2121	3185.6152	3206.764
C1C2CC3OCOC3C12	C1[C@H]2C[C@@H]3OCO[C@@H]3[C@@H]12	
InChI=1S/C7H10O2/c1-4-2-6-7(5(1)4)9-3-8-6/h4-7H,1-3H2	InChI=1S/C7H10O2/c1-4-2-6-7(5(1)4)9-3-8-6/h4-7H,1-3H2/t4-,5-,6-,7+/m0/s1
