19
gdb 76	5.6490904	0.6663258	0.6373707	1.0879	78.45	-0.22176	0.02018	0.24194000000000002	1761.0966	0.156898	-422.564877	-422.555746	-422.554802	-422.600118	32.116	
C	 1.4352148107	 0.0133714609	-0.1243252804	-0.228265
O	 0.0424318809	-0.0617600868	 0.0573803103	-0.227667
C	-0.408183291	 0.6843688241	 1.165324528	-0.039415
C	-1.9264524615	 0.5256582962	 1.2658114362	-0.337818
C	-2.5125910024	 1.3093365175	 2.4011297413	 0.236271
C	-3.0318796334	 0.8198908207	 3.559726305	-0.100015
O	-3.4580750635	 1.8252680021	 4.3709331211	-0.141231
C	-3.2039479103	 2.9881600249	 3.7165244996	 0.006291
C	-2.6286393852	 2.7409726625	 2.512781926	-0.279518
H	 1.9841702967	-0.3786399979	 0.7469259653	 0.103227
H	 1.6854925346	-0.5913025713	-0.9995408973	 0.126326
H	 1.7703375871	 1.0483000717	-0.3002012323	 0.102367
H	 0.0706177264	 0.3325836815	 2.0949192219	 0.088908
H	-0.1407436331	 1.7489468231	 1.0501408254	 0.086186
H	-2.3653210687	 0.8412538843	 0.312076512	 0.116502
H	-2.1568601558	-0.538317828	 1.3819105356	 0.111689
H	-3.1709614987	-0.1796217523	 3.9386528211	 0.133207
H	-3.4917516776	 3.8885489301	 4.233763927	 0.134501
H	-2.3271623651	 3.4766008768	 1.7826923443	 0.108454
46.9522	85.3161	94.0366	113.751	235.9355	257.9907	320.9648	334.9874	455.0146	623.0375	649.8757	724.031	739.0328	787.301	803.4549	834.1073	892.6957	982.4352	996.9529	1057.434	1057.9472	1063.2875	1101.4553	1162.9431	1180.1371	1203.8326	1226.3065	1228.7799	1267.4957	1277.5385	1307.5731	1329.4781	1409.1988	1420.3249	1481.6218	1486.1349	1490.0873	1505.4471	1531.1604	1537.3244	1636.6043	2950.1244	2969.4659	2980.3011	3010.1645	3039.3873	3085.7956	3112.3596	3247.6171	3271.5405	3283.726
COCCC1=COC=C1	COCCc1cocc1	
InChI=1S/C7H10O2/c1-8-4-2-7-3-5-9-6-7/h3,5-6H,2,4H2,1H3	InChI=1S/C7H10O2/c1-8-4-2-7-3-5-9-6-7/h3,5-6H,2,4H2,1H3
