19
gdb 83	3.0417346	1.3275589	1.1017344	0.9049	76.94	-0.26273	0.03704	0.29977000000000004	1151.6824	0.157368	-422.513143	-422.504513	-422.503569	-422.546783	32.412	
C	-0.0511062084	 0.0975493044	 0.4438686309	-0.429361
C	 1.137515823	 0.0150748918	 0.2950678361	 0.319837
C	 2.5897417577	-0.0432085147	 0.0662006675	-0.001862
O	 3.2133337394	 1.209250688	 0.2079529362	-0.235171
C	 3.2791167089	 1.7167155805	 1.54324198	-0.077296
C	 4.2442871642	 0.9139370456	 2.4486349876	-0.207845
C	 5.2328192931	 0.0847010372	 1.6177853166	-0.207014
C	 4.5306457883	-1.1146568789	 0.9294533905	-0.063553
O	 3.1068667236	-1.0158934207	 0.9378817634	-0.24301
H	-1.1028010961	 0.1636059651	 0.5783085608	 0.19991
H	 2.7919303299	-0.3155087173	-0.9817383527	 0.101224
H	 3.6401647657	 2.7402285209	 1.4126584121	 0.109516
H	 2.2735096482	 1.7652278523	 1.9790786164	 0.110112
H	 4.7925173211	 1.6123872361	 3.0901329984	 0.093721
H	 3.6774351156	 0.2507747808	 3.1079776663	 0.114727
H	 5.7040823033	 0.7252387401	 0.8665668757	 0.110695
H	 6.0328717786	-0.2933204939	 2.2630749958	 0.094873
H	 4.8948998198	-1.2448377582	-0.0994792841	 0.098612
H	 4.7318638841	-2.0404115592	 1.4746116924	 0.111887
41.1039	141.0575	163.5713	237.0686	299.2348	304.9616	349.0442	379.5847	524.6258	576.9647	612.2773	651.9004	668.2082	700.4811	806.9344	847.0749	868.3574	915.4879	920.443	982.2615	1008.8142	1023.8792	1069.1833	1088.2604	1144.657	1155.9149	1241.4391	1258.0437	1298.371	1311.4549	1355.959	1370.9904	1377.6324	1384.4731	1404.772	1412.2102	1485.3849	1486.0189	1500.7536	1503.3003	2243.4434	2984.4085	3005.4867	3030.1809	3043.0999	3051.8836	3076.0254	3083.5092	3100.7137	3106.7202	3502.1839
C#CC1OCCCCO1	C#CC1OCCCCO1	
InChI=1S/C7H10O2/c1-2-7-8-5-3-4-6-9-7/h1,7H,3-6H2	InChI=1S/C7H10O2/c1-2-7-8-5-3-4-6-9-7/h1,7H,3-6H2
