19
gdb 142	2.4870504	2.1050687	1.6669348	0.9162	73.3	-0.23036	0.0777	0.30806	897.6558	0.160943	-422.548561	-422.541911	-422.540967	-422.579243	27.512	
C	 2.298554558	-0.4060131806	-0.8844507275	-0.240224
C	 1.113447427	 0.5444004695	-0.8068308233	-0.107402
C	 0.8921274561	 1.3520776283	 0.4690679385	-0.08493
C	 1.9535482569	 1.6432291242	 1.5259801393	-0.110454
O	 3.1950481269	 0.9873709562	 1.3516315719	-0.23732
C	 3.1511923023	-0.4152470812	 1.5144166158	-0.086304
C	 2.2563319017	-1.1201885743	 0.4855337789	 0.057685
O	 0.8820911387	-1.0997026868	 0.9026775216	-0.264838
C	 0.2502562202	-0.000301707	 0.2991723725	 0.087486
H	 2.1322971452	-1.1171495955	-1.7000701699	 0.101822
H	 3.2571269021	 0.0907263743	-1.0459335524	 0.119966
H	 0.6918789665	 0.917361667	-1.7329558951	 0.08857
H	 0.2051043705	 2.1854990948	 0.3373480477	 0.087784
H	 2.1935395611	 2.7106434075	 1.5008626919	 0.110309
H	 1.5436915852	 1.4173811395	 2.524964294	 0.095487
H	 4.1853715566	-0.7559554686	 1.3939582232	 0.103543
H	 2.8077449589	-0.6883345759	 2.5244358386	 0.098586
H	 2.5485941145	-2.1741558112	 0.4314690439	 0.084696
H	-0.8248633983	-0.1250573303	 0.2460685703	 0.095538
154.638	277.1648	296.3901	375.5112	396.9617	490.4195	560.9185	670.9057	712.2787	749.6041	774.0711	797.186	814.6487	890.202	913.9267	924.0495	990.9201	1018.6986	1027.1299	1035.1596	1051.0391	1072.1262	1101.6519	1109.4891	1132.3302	1174.9044	1192.7756	1204.9005	1270.2643	1285.6925	1312.0645	1328.9197	1342.8372	1355.2272	1376.932	1385.0615	1411.0274	1441.5058	1478.0968	1489.4518	1495.0691	2963.8327	2989.4	3047.5949	3059.4476	3072.7917	3076.1257	3115.3615	3128.882	3172.4747	3184.6565
C1C2C3COCC1OC23	C1[C@@H]2[C@@H]3COC[C@H]1O[C@H]23	
InChI=1S/C7H10O2/c1-4-2-8-3-6-5(1)7(6)9-4/h4-7H,1-3H2	InChI=1S/C7H10O2/c1-4-2-8-3-6-5(1)7(6)9-4/h4-7H,1-3H2/t4-,5+,6-,7+/m0/s1
