19
gdb 214	2.8967169	1.9084692	1.584265	2.0411	72.73	-0.24002	0.0823	0.32232	914.3859	0.160608	-422.560321	-422.553602	-422.552658	-422.591138	27.824	
C	 1.7779009674	 3.4075136561	-1.0138495631	-0.325845
C	 1.1772614073	 2.7742090338	 0.2159713694	 0.105829
O	-0.1620618682	 2.3417407374	 0.1797382729	-0.265045
C	-0.3430360191	 1.0857549947	-0.4453931984	 0.193064
C	 0.2495881222	-0.0959216231	 0.3658145884	-0.254579
C	 1.5865580743	-0.3997716054	-0.35675474	-0.216748
C	 1.6991216547	 0.8004440087	-1.3147201576	 0.047164
O	 0.3323183265	 1.0412887105	-1.6878816917	-0.251999
C	 2.2193030875	 2.0263045032	-0.5810068255	-0.061633
H	 1.1301176381	 3.4680671157	-1.8802910338	 0.133948
H	 2.4706596026	 4.232089858	-0.8854367657	 0.108311
H	 1.4369470258	 3.1796398022	 1.1891656485	 0.094963
H	-1.4148971442	 1.0092087521	-0.6331427481	 0.090298
H	 0.3782796503	 0.1898276964	 1.411434374	 0.11502
H	-0.4296353239	-0.9506801793	 0.3343781166	 0.109912
H	 2.436679428	-0.4749466682	 0.3255584356	 0.100926
H	 1.5255055706	-1.3303285093	-0.926701489	 0.105305
H	 2.2578350271	 0.5949370797	-2.2310618387	 0.081792
H	 3.2085199129	 1.920646167	-0.1454126438	 0.089315
138.2855	210.2598	324.2189	384.6983	442.8969	513.6632	553.6568	643.1699	731.5473	753.6915	799.9686	816.0901	834.6127	861.8271	898.7862	925.1797	958.7672	969.1779	999.9476	1018.8203	1038.8316	1051.7456	1068.2722	1101.1239	1113.8438	1128.0801	1167.0895	1195.1867	1219.9947	1241.6195	1263.4042	1284.4428	1321.0255	1336.6141	1353.3544	1373.9675	1390.2767	1416.6004	1473.2388	1481.7386	1501.6675	3062.3044	3076.6138	3084.1143	3105.6724	3111.5882	3129.3101	3137.348	3144.8063	3155.2149	3234.9226
C1C2OC3CCC(O3)C12	C1[C@H]2O[C@@H]3CC[C@@H](O3)[C@@H]12	
InChI=1S/C7H10O2/c1-2-7-8-5(1)4-3-6(4)9-7/h4-7H,1-3H2	InChI=1S/C7H10O2/c1-2-7-8-5(1)4-3-6(4)9-7/h4-7H,1-3H2/t4-,5-,6-,7-/m1/s1
