19
gdb 5	2.5380186	1.4140995	0.9536975	1.0674	78.38	-0.21149	0.01679	0.22828	1237.6017	0.156107	-422.590889	-422.581568	-422.580624	-422.625196	34.327	
C	 0.1565871054	-2.9849797109	-2.4871705961	-0.397217
C	-0.5226725839	-1.6735643388	-2.8871462067	 0.01443
O	 0.2537812606	-0.9824332442	-3.8740449556	-0.42068
C	-0.8412122797	-0.7848142812	-1.7072068565	 0.128119
C	-1.2561962595	 0.519273783	-1.7595177983	 0.273243
C	-1.5412493516	 1.4615142691	-2.8747487898	-0.503599
O	-1.4494406347	 0.996521529	-0.496263091	-0.175504
C	-1.1615837657	-0.0106385651	 0.3705867786	-0.025872
C	-0.7835602638	-1.1212422846	-0.3079488345	-0.28585
H	 1.0866538967	-2.7939363512	-1.9398420154	 0.111678
H	-0.4938125952	-3.593075729	-1.850465698	 0.118448
H	 0.3964144587	-3.5579604811	-3.3860317283	 0.122713
H	-1.4506237584	-1.918628434	-3.4195228962	 0.098815
H	 1.0127390202	-0.6014819626	-3.4175020702	 0.274979
H	-2.6157430558	 1.6612074898	-2.9684034453	 0.133331
H	-1.0457590308	 2.424890494	-2.7116423304	 0.133064
H	-1.1783097708	 1.0339711625	-3.8098379151	 0.158399
H	-1.2675827856	 0.2250746881	 1.4164829494	 0.131818
H	-0.4965167461	-2.0663745328	 0.1248878195	 0.109685
41.828	144.9748	173.1579	193.1738	244.0054	266.8814	300.4134	322.9573	386.2672	446.7751	496.7969	613.2375	625.9191	692.6628	723.4311	744.5686	827.3668	892.5741	913.3008	968.2062	1019.0215	1052.5128	1065.9563	1087.5131	1103.3462	1154.8199	1182.6576	1246.7789	1268.3428	1286.6031	1355.8909	1401.7698	1405.9771	1420.1336	1435.2224	1485.3264	1490.9994	1493.2056	1494.8551	1547.2079	1640.6026	3023.5068	3028.0855	3033.8414	3078.6592	3102.9993	3125.1832	3153.6908	3256.2928	3284.5987	3794.0931
CC(O)C1=C(C)OC=C1	C[C@H](O)c1c(C)occ1	
InChI=1S/C7H10O2/c1-5(8)7-3-4-9-6(7)2/h3-5,8H,1-2H3	InChI=1S/C7H10O2/c1-5(8)7-3-4-9-6(7)2/h3-5,8H,1-2H3/t5-/m0/s1
