19
gdb 34	2.3868836	1.3305139	0.9072643	1.4876	80.3	-0.19233	0.02357	0.2159	1322.7053	0.156212	-422.567034	-422.557618	-422.556673	-422.602242	33.419	
C	 1.8990211582	-1.0512444807	-0.7197590546	-0.36939
C	 0.8721528209	-0.1137279729	-0.0595315575	-0.296261
C	 1.369677189	 1.2717379526	 0.1470484789	 0.252031
C	 1.6314580894	 2.0117966023	 1.2658345548	 0.229246
O	 1.4490433841	 1.5458214498	 2.5297742256	-0.26767
C	 1.7522251331	 2.4475811306	 3.5757219498	-0.247523
C	 2.1071905699	 3.2946397621	 0.8291035089	-0.316205
C	 2.1002392363	 3.2360152395	-0.5290013195	-0.008955
O	 1.6613333497	 2.0301144072	-0.958114894	-0.182881
H	 2.7958965608	-1.1460423283	-0.1001194392	 0.120045
H	 1.4753783834	-2.0498220509	-0.8655984248	 0.10926
H	 2.2045368328	-0.6653325279	-1.6965569784	 0.126828
H	-0.0411009444	-0.0930459474	-0.6695489747	 0.111331
H	 0.5843910056	-0.5022879121	 0.9224223885	 0.122656
H	 1.5503491729	 1.9189910263	 4.5090568689	 0.133406
H	 2.8078390437	 2.7502359092	 3.5553994893	 0.120242
H	 1.124210212	 3.3474496811	 3.5292092916	 0.120379
H	 2.4070488502	 4.1347113387	 1.4336660299	 0.112408
H	 2.3669393523	 3.9428260608	-1.2972998935	 0.131053
49.7559	54.181	140.735	173.9947	209.6594	235.8491	300.1586	316.249	388.2447	529.2082	597.6556	630.8371	690.1119	716.2475	732.3179	784.0175	798.2836	903.9826	968.0908	1010.6557	1061.4008	1082.8949	1103.4432	1163.1294	1179.9558	1194.5591	1215.2011	1243.8844	1296.1203	1322.3477	1357.8909	1403.6528	1448.4174	1472.9622	1489.4467	1492.5091	1496.6841	1508.0808	1508.3104	1540.6606	1679.3899	2998.4338	3015.2785	3038.5205	3054.6599	3082.5641	3109.6512	3118.6117	3130.8946	3261.3658	3284.0147
CCC1=C(OC)C=CO1	CCc1c(OC)cco1	
InChI=1S/C7H10O2/c1-3-6-7(8-2)4-5-9-6/h4-5H,3H2,1-2H3	InChI=1S/C7H10O2/c1-3-6-7(8-2)4-5-9-6/h4-5H,3H2,1-2H3
