19
gdb 139	3.3603956	1.4889357	1.1855806	2.3617	74.08	-0.24742	0.07473	0.32215	1058.0518	0.158949	-422.516657	-422.509374	-422.50843	-422.548368	28.796	
C	 0.1636455266	-2.9375498661	 0.052682504	-0.204889
C	-1.0065462954	-2.5236532674	-0.8323478189	-0.057603
O	-1.1839848223	-1.1167283515	-0.7949504428	-0.270018
C	-0.1025442757	-0.3350377745	-1.2607368322	 0.059922
C	 0.1089003659	 0.7882328144	-0.2294351872	 0.0247
O	 1.3250689743	 1.4686919172	-0.5305239606	-0.249071
C	 1.398496384	 0.2223077917	 0.1827497386	 0.002305
C	 1.344068011	-0.8724362973	-0.9041296828	-0.035525
C	 1.4588805476	-2.3516135314	-0.5232914299	-0.24289
H	-0.0236168007	-2.5682577159	 1.0678902449	 0.106385
H	 0.2335254491	-4.0295893277	 0.1071999771	 0.09617
H	-0.8465768334	-2.8729613217	-1.8668866679	 0.085422
H	-1.9516017739	-2.9463393196	-0.4796051805	 0.107814
H	-0.263309912	-0.0360347469	-2.3050168301	 0.075268
H	-0.6609664754	 1.3168485514	 0.3207511339	 0.108012
H	 1.9085220297	 0.227145406	 1.1399987569	 0.101059
H	 2.0697592148	-0.6358447777	-1.6874371996	 0.088753
H	 1.7132169702	-2.9164263018	-1.4291170196	 0.103764
H	 2.2986973258	-2.4902165112	 0.1679292067	 0.100422
108.9116	143.2604	293.7	316.8499	357.0439	412.6767	481.8864	528.6073	612.9951	768.8732	822.9881	839.8047	844.2229	865.4172	881.419	919.7547	942.8212	986.0624	1006.0976	1015.2817	1049.5092	1069.4314	1095.4982	1130.5658	1138.3424	1214.5366	1217.1656	1226.8518	1242.4166	1264.0186	1281.7061	1317.1399	1334.3575	1347.7191	1373.2049	1386.8401	1393.5487	1411.1669	1478.3757	1489.7868	1504.6202	2961.7126	3014.237	3020.4315	3033.7256	3056.729	3067.4655	3081.548	3085.8455	3173.3782	3193.7229
C1COC2C3OC3C2C1	C1CO[C@H]2[C@@H]3O[C@@H]3[C@H]2C1	
InChI=1S/C7H10O2/c1-2-4-5(8-3-1)7-6(4)9-7/h4-7H,1-3H2	InChI=1S/C7H10O2/c1-2-4-5(8-3-1)7-6(4)9-7/h4-7H,1-3H2/t4-,5+,6+,7-/m0/s1
