19
gdb 354	4.550738	0.9269879	0.7950194	1.28	79.83	-0.23187	0.00589	0.23776	1414.7124	0.157469	-422.524457	-422.516083	-422.515139	-422.55829	30.269	
C	-2.8869294041	-1.5337775552	 0.2685948916	-0.170408
O	-3.1681404298	-2.4687111806	 1.3360358502	-0.275104
C	-1.8330967129	-2.3316431177	 1.8775365278	-0.168225
C	-1.4757318128	-1.3549587025	 0.7814773786	 0.180055
C	-0.4088956811	-0.660337392	 0.4275191512	 0.146599
C	 0.9440467516	-0.6475491334	 1.1090069809	-0.331699
C	 1.8310374632	-0.0235627688	 0.0192160718	-0.080044
O	 0.9799488576	 0.8768943603	-0.6772623121	-0.249462
C	-0.2980197315	 0.2631762806	-0.774158523	-0.159804
H	-2.9911358292	-1.9949963254	-0.724153671	 0.11144
H	-3.5371113429	-0.64798685	 0.3122030892	 0.111888
H	-1.8420976692	-1.9328235432	 2.9019794869	 0.111607
H	-1.2857936258	-3.2854586383	 1.8782918386	 0.110356
H	 0.9252082677	-0.0028223765	 1.9963979514	 0.123014
H	 1.2780583194	-1.6403234916	 1.4238536652	 0.112874
H	 2.6780717557	 0.5479945917	 0.4058410207	 0.112083
H	 2.2155870327	-0.8030553939	-0.658940425	 0.092253
H	-1.0550299447	 1.0551088926	-0.7891921852	 0.11981
H	-0.389493204	-0.306932506	-1.7148762678	 0.102769
55.5077	126.1395	126.5502	168.0047	248.2756	294.4119	379.8896	472.1575	478.1333	652.979	752.2108	867.7102	879.3975	911.6119	940.1924	948.9492	965.1122	1008.8806	1020.9645	1039.9152	1069.3892	1085.2693	1093.4811	1122.0848	1135.8402	1136.6808	1202.5781	1206.8858	1235.1843	1260.3373	1296.6301	1301.0685	1348.5769	1360.643	1396.354	1473.9194	1494.1598	1501.3778	1520.9332	1521.9452	1827.0035	2951.6319	2971.1857	2982.3677	2994.8848	3020.271	3021.8809	3030.4137	3055.2392	3088.3667	3101.4994
C1OCC1=C1CCOC1	C1OCC1=C1CCOC1	
InChI=1S/C7H10O2/c1-2-8-3-6(1)7-4-9-5-7/h1-5H2	InChI=1S/C7H10O2/c1-2-8-3-6(1)7-4-9-5-7/h1-5H2
