19
gdb 25	2.2738118	1.3207071	0.8905322	2.268	81.35	-0.20959	0.01447	0.22406	1339.7293	0.155595	-422.593209	-422.583373	-422.582429	-422.628315	34.796	
C	 4.370598618	-0.0551649064	-2.1557176343	-0.491311
C	 3.4655398705	-0.0160427768	-0.977046672	 0.361091
C	 3.6787285341	 0.0161415588	 0.3656728113	-0.364492
C	 2.3869090994	 0.0454309688	 0.9964621167	 0.1823
C	 2.1228040754	 0.0887315583	 2.4705689253	-0.506939
C	 1.4776077539	 0.0322159425	-0.022968443	 0.211513
C	-0.0082534042	 0.0099619696	-0.0702192029	-0.170238
O	-0.5546087002	-1.2529301196	-0.4489275627	-0.412722
O	 2.1294602257	-0.006052588	-1.2294882632	-0.208612
H	 5.4116545581	-0.0639276204	-1.8257821355	 0.13394
H	 4.1949616865	-0.948473466	-2.7657208562	 0.140051
H	 4.2224366225	 0.8158358945	-2.8042033639	 0.138975
H	 4.6398290505	 0.020349419	 0.8578072111	 0.102892
H	 2.5542775134	-0.7813658193	 2.9789038157	 0.129513
H	 2.5691016951	 0.9786662183	 2.9290543642	 0.132204
H	 1.052578097	 0.1046771933	 2.6926118129	 0.124537
H	-0.3955975595	 0.3378442216	 0.9054111716	 0.097057
H	-0.3741882716	 0.7167571053	-0.822105622	 0.122729
H	-0.1418790845	-1.9191932834	 0.1107268069	 0.277512
59.6392	119.8202	123.9357	134.5671	190.2959	241.8683	253.6153	293.6343	324.2966	408.2428	471.8227	586.9522	630.589	647.0357	710.6975	794.3036	802.9976	929.5114	985.1402	1013.3204	1020.8315	1030.736	1061.9877	1064.1715	1132.8019	1174.0204	1217.8328	1254.1852	1291.9272	1358.3684	1402.7072	1414.4648	1424.031	1431.709	1472.9218	1483.0721	1488.9515	1491.6586	1500.6526	1607.6767	1672.3074	3000.1617	3028.5679	3031.537	3075.1549	3076.788	3082.0351	3112.5651	3130.3805	3244.3772	3809.1987
CC1=CC(C)=C(CO)O1	Cc1cc(C)c(CO)o1	
InChI=1S/C7H10O2/c1-5-3-6(2)9-7(5)4-8/h3,8H,4H2,1-2H3	InChI=1S/C7H10O2/c1-5-3-6(2)9-7(5)4-8/h3,8H,4H2,1-2H3
