19
gdb 123	3.0943142	1.7059791	1.4523575	0.1706	73.24	-0.22114	0.08337	0.30451	964.0125	0.159176	-422.539804	-422.532605	-422.531661	-422.571038	29.094	
C	 1.7686012243	 0.1710481731	-0.3596069909	-0.427008
C	 0.97808135	 0.7075145404	 0.8252253243	 0.38707
C	 0.7013712172	-0.1915011708	 2.0068304018	-0.321367
C	 0.1457527177	-1.4689914418	 1.3156163542	-0.102854
O	-0.3852896423	-1.0755071626	 0.0388314162	-0.314007
C	 0.2478125082	 0.1186338336	-0.3256635915	 0.387014
C	-0.5519619281	 1.2432410983	-0.9393936311	-0.321274
C	 0.1201898812	 2.4962746951	-0.3097832998	-0.102904
O	 0.7406858906	 2.0839382665	 0.9197778082	-0.313977
H	 2.2459817627	 0.8861553672	-1.0206739165	 0.11773
H	 2.3137501254	-0.758590166	-0.237597366	 0.117723
H	 1.5641754129	-0.4193150409	 2.6386508126	 0.108954
H	-0.0608865112	 0.2926391722	 2.6249719037	 0.119256
H	 0.9449605496	-2.2086596965	 1.1708423462	 0.103706
H	-0.6572772918	-1.9502185008	 1.8803074824	 0.115043
H	-0.542126753	 1.2879153887	-2.031833015	 0.108939
H	-1.5893050009	 1.1365122068	-0.6075894213	 0.119226
H	 0.8807186506	 2.9081331636	-0.987137899	 0.10369
H	-0.5889721632	 3.2952876637	-0.0774967486	 0.11504
168.4193	197.9962	200.5218	342.5897	369.3291	422.5998	544.6017	573.9572	609.5758	679.9968	751.4938	781.4529	846.0796	871.3942	894.9195	902.154	913.7486	948.6909	949.3891	1008.3367	1011.2132	1033.3778	1065.4502	1093.7791	1150.9293	1200.2095	1209.7863	1225.6011	1238.4426	1242.0137	1259.3638	1309.3054	1329.0368	1380.5348	1389.9529	1404.7899	1470.3497	1492.0296	1498.1828	1523.1927	1525.3196	3008.6873	3009.6747	3056.2425	3057.1947	3087.2979	3087.6532	3105.8332	3106.478	3133.2856	3222.7542
C1C23CCOC12CCO3	C1[C@]23CCO[C@]12CCO3	
InChI=1S/C7H10O2/c1-3-8-7-2-4-9-6(1,7)5-7/h1-5H2	InChI=1S/C7H10O2/c1-3-8-7-2-4-9-6(1,7)5-7/h1-5H2/t6-,7-/m1/s1
