19
gdb 302	2.5871701	2.0625667	1.8202716	1.1052	72.1	-0.23922	0.07761	0.31683	869.424	0.161254	-422.55798	-422.551584	-422.55064	-422.588394	26.829	
C	 2.6136671362	 0.8575611396	 1.6599903035	-0.082352
O	 2.464705133	-0.1718132538	 0.6663831928	-0.268684
C	 1.4602212384	 0.2402861978	-0.2254148105	 0.095216
C	-0.0303624563	-0.1127345469	 0.0989888871	 0.056981
C	-0.2075990926	-0.3930970342	 1.5901654571	-0.223699
C	 0.1612026441	 0.9010765621	 2.3575593175	-0.199927
C	 1.3013388134	 1.6562567697	 1.6397588266	-0.084189
C	 0.9732244465	 1.6522481114	 0.114124286	 0.066757
O	-0.3934908708	 1.2792118362	-0.1667562512	-0.30402
H	 2.811598436	 0.3796552602	 2.6246070568	 0.109569
H	 3.4779033769	 1.4892558178	 1.4064617197	 0.096425
H	 1.7519756248	 0.0352375497	-1.2568788978	 0.086376
H	-0.5621318152	-0.8022330403	-0.5609334206	 0.07528
H	-1.238692043	-0.6850356789	 1.8113584594	 0.100223
H	 0.4425084529	-1.2279105757	 1.8731042019	 0.114986
H	-0.715104855	 1.553380983	 2.3796353589	 0.114748
H	 0.4337229306	 0.6844422881	 3.3951120347	 0.092462
H	 1.432828409	 2.6589905939	 2.0540372506	 0.073721
H	 1.2929700811	 2.5381117404	-0.4381399023	 0.080127
170.5751	263.3162	360.8373	413.1661	420.4858	537.3508	620.6131	676.0948	731.4065	775.6217	810.9469	828.3466	856.563	901.8655	924.0585	948.8693	975.8494	985.6416	999.5483	1026.9773	1033.8374	1077.2993	1089.7787	1144.7879	1153.5018	1172.7942	1215.7591	1228.8332	1249.3682	1277.7947	1287.0542	1311.0612	1322.9843	1337.4006	1347.1835	1370.135	1379.2135	1399.7173	1475.5965	1489.5539	1521.8453	2993.8751	3046.1562	3056.3741	3073.9369	3077.0561	3080.5959	3087.701	3090.924	3103.7079	3106.9974
C1OC2C3CCC1C2O3	C1O[C@H]2[C@H]3CC[C@@H]1[C@@H]2O3	
InChI=1S/C7H10O2/c1-2-5-7-6(9-5)4(1)3-8-7/h4-7H,1-3H2	InChI=1S/C7H10O2/c1-2-5-7-6(9-5)4(1)3-8-7/h4-7H,1-3H2/t4-,5+,6-,7-/m0/s1
