19
gdb 111	4.2540678	1.028103	0.9159529	1.062	77.61	-0.24427	0.0092	0.25347	1315.0852	0.156709	-422.531555	-422.523157	-422.522213	-422.565645	31.043	
C	-0.4078864379	 4.2499947848	 0.9121911918	-0.276116
C	-1.2992641508	 4.885005327	-0.1361993696	-0.290763
C	-0.0538627873	 4.168871766	-0.5481576167	 0.138751
O	-0.2364608444	 2.9651086653	-1.2412602177	-0.258247
C	 0.799525708	 2.0237766715	-1.0628758644	 0.185245
O	 0.6981934428	 1.3234042528	 0.167628437	-0.260194
C	 0.2771463593	-0.018172956	-0.0643720897	-0.121522
C	 0.3403807353	-0.191562984	-1.5546944574	-0.088252
C	 0.6657448074	 0.9626080462	-2.1222699941	-0.107766
H	 0.1868619546	 4.8930360901	 1.551788259	 0.109111
H	-0.750382485	 3.3332614457	 1.3742307624	 0.130321
H	-2.2349039552	 4.3858259136	-0.3607167365	 0.124035
H	-1.3274083629	 5.9654456542	-0.2211603928	 0.110709
H	 0.790132853	 4.7583070619	-0.9073097833	 0.083388
H	 1.7640605845	 2.5542510776	-1.0605194721	 0.07218
H	 0.9541285603	-0.6959205623	 0.4736509528	 0.113602
H	-0.7378185333	-0.1873643157	 0.3278852283	 0.1118
H	 0.1303135967	-1.1300649268	-2.0515958501	 0.111054
H	 0.7728153949	 1.1800769681	-3.1758920667	 0.112664
45.7644	77.3908	114.6054	187.9674	294.3504	373.2748	380.8765	494.0025	569.2299	715.9642	755.3428	781.3389	813.7656	819.3849	849.6579	932.5073	939.0891	958.1403	962.2168	984.9206	1031.4675	1038.9964	1042.3068	1065.6978	1068.7735	1103.3158	1122.7088	1129.6035	1191.5948	1196.8492	1201.2427	1242.0976	1309.9045	1365.7596	1370.1219	1386.1328	1424.4331	1456.5908	1498.8076	1512.0854	1692.225	2984.981	2986.9733	3023.8486	3096.2614	3139.7149	3146.2665	3214.4535	3225.6454	3242.9589	3244.7786
C1CC1OC1OCC=C1	C1CC1O[C@H]1OCC=C1	
InChI=1S/C7H10O2/c1-2-7(8-5-1)9-6-3-4-6/h1-2,6-7H,3-5H2	InChI=1S/C7H10O2/c1-2-7(8-5-1)9-6-3-4-6/h1-2,6-7H,3-5H2/t7-/m1/s1
