19
gdb 145	2.5281403	2.0582665	1.4892049	2.1088	73.78	-0.24456	0.08225	0.32681	933.9061	0.160343	-422.521271	-422.514359	-422.513415	-422.552227	28.188	
C	 2.7002730416	 0.2480876296	-0.2585526141	-0.26847
C	 1.3922583447	-0.3306082303	 0.291514858	-0.072214
C	 1.1190847155	-1.7104786744	-0.225572149	-0.022334
C	 2.1283017559	-2.8169800276	-0.4969666838	-0.124105
O	 3.2352643318	-2.4588248271	-1.3103439597	-0.236645
C	 2.8952945933	-1.9892594815	-2.5900365069	 0.017808
O	 2.8805615736	-0.5912451459	-2.6860759197	-0.255244
C	 2.1187675661	 0.0840593114	-1.7059795754	 0.134562
C	 0.8388007351	-0.5402600278	-1.1357723684	-0.142901
H	 2.8481741314	 1.2986897701	 0.0017692331	 0.097894
H	 3.6116893435	-0.3096850556	-0.0437034144	 0.117746
H	 0.8562714842	 0.0593003153	 1.1485157632	 0.08656
H	 0.1975029281	-2.1227679548	 0.1843869385	 0.090027
H	 2.5611664386	-3.1788159434	 0.4419484789	 0.113405
H	 1.5919923224	-3.6629165994	-0.9576854309	 0.095514
H	 3.6748436617	-2.3176268195	-3.2832932568	 0.111876
H	 1.9242088005	-2.4137703858	-2.8942611049	 0.082158
H	 1.9068385123	 1.0638792579	-2.1394865098	 0.091714
H	-0.1576833805	-0.3524804313	-1.5186529978	 0.08265
160.3194	213.5243	309.828	338.3225	382.5049	441.2537	478.6318	632.203	680.6498	703.1078	767.8326	802.6447	829.0587	874.5279	940.9438	973.4785	980.384	992.5949	1011.8685	1027.4979	1060.6696	1069.7506	1093.496	1101.9637	1149.765	1172.8314	1185.163	1212.4359	1238.7652	1268.739	1291.7433	1307.6201	1333.6474	1346.7121	1389.0453	1401.546	1447.3793	1457.5321	1491.986	1496.1503	1513.2484	2960.3464	2971.4755	3067.0948	3071.4464	3084.9839	3088.5504	3116.1358	3137.7741	3170.9821	3185.0127
C1C2C3COCOC1C23	C1[C@@H]2[C@@H]3COCO[C@H]1[C@H]23	
InChI=1S/C7H10O2/c1-4-5-2-8-3-9-6(1)7(4)5/h4-7H,1-3H2	InChI=1S/C7H10O2/c1-4-5-2-8-3-9-6(1)7(4)5/h4-7H,1-3H2/t4-,5+,6-,7-/m1/s1
