19
gdb 21	3.7404996	0.9382252	0.9090222	1.3308	78.02	-0.22146	0.0214	0.24286	1376.5034	0.156096	-422.566624	-422.557365	-422.556421	-422.601709	33.026	
C	 1.4429454237	-0.1821646939	 0.0116313533	-0.229631
O	 0.0622825453	 0.0932378884	 0.0053997041	-0.247831
C	-0.4024185229	 0.8474922855	 1.1220594648	-0.003803
C	 0.0022999715	 2.3260328256	 1.0194138767	-0.398899
C	-1.8920245526	 0.6795375563	 1.1692286118	 0.276782
C	-2.6508629825	 0.335522435	 2.2428811201	-0.120632
O	-3.9707405157	 0.3074502754	 1.9169310769	-0.146778
C	-4.053546064	 0.634527483	 0.599230587	 0.004552
C	-2.8206782113	 0.8752084455	 0.0879030102	-0.276588
H	 1.7532530285	-0.680957755	 0.9437817868	 0.102124
H	 1.637822277	-0.8560001283	-0.8266219476	 0.127693
H	 2.0613145423	 0.7181894739	-0.1176179337	 0.105359
H	 0.0290939016	 0.4271610668	 2.0461196706	 0.063668
H	-0.3901980231	 2.8829877589	 1.8750680949	 0.121288
H	 1.0896739671	 2.4448319868	 1.0088138653	 0.11351
H	-0.4050579813	 2.7661669041	 0.104512681	 0.125692
H	-2.414138752	 0.0914981839	 3.2656870992	 0.132888
H	-5.0473397231	 0.6447898675	 0.1829853257	 0.134111
H	-2.5809469087	 1.1374877805	-0.930054797	 0.116494
38.6001	71.1632	124.124	176.9531	208.2751	250.0984	323.4815	362.3952	404.3901	498.9325	621.5244	677.5062	716.1063	736.1707	789.1901	839.3162	858.6441	893.6501	969.481	1006.9159	1050.6673	1072.7597	1095.8904	1112.0115	1146.0499	1181.3456	1197.3647	1221.1178	1256.8337	1288.3522	1355.6912	1371.4444	1398.9065	1416.5265	1476.5902	1482.4318	1489.1146	1502.2052	1511.6802	1539.6313	1638.9139	2957.7124	2973.9722	3021.5594	3042.7193	3109.2998	3115.2381	3121.638	3261.019	3271.2646	3286.4837
COC(C)C1=COC=C1	CO[C@@H](C)c1cocc1	
InChI=1S/C7H10O2/c1-6(8-2)7-3-4-9-5-7/h3-6H,1-2H3	InChI=1S/C7H10O2/c1-6(8-2)7-3-4-9-5-7/h3-6H,1-2H3/t6-/m0/s1
