19
gdb 90	4.2462125	0.9021122	0.8573175	0.9055	77.23	-0.2619	0.03596	0.29786	1405.2172	0.156601	-422.523011	-422.51393	-422.512986	-422.558034	32.742	
C	-2.5529310017	 4.044739286	 1.5715063796	-0.472455
C	-2.2033789513	 3.365923908	 0.6431491864	 0.315312
C	-1.7710617615	 2.5356667003	-0.4839256395	-0.224322
O	-1.0109750871	 1.4002389086	-0.0876598251	-0.251123
C	 0.2898531194	 1.7142201791	 0.3758707437	 0.221133
C	 0.9576393666	 0.3882691894	 0.7927000744	-0.262568
C	 2.1022604138	 0.2067178547	-0.2299981403	-0.211219
C	 1.7146890429	 1.1917308618	-1.3389028953	-0.08941
O	 1.0867046371	 2.2722802149	-0.6459442887	-0.248294
H	-2.8677118581	 4.6475172215	 2.3872523404	 0.20126
H	-2.6452800767	 2.1386011669	-1.0096207626	 0.135684
H	-1.1990643832	 3.1441807804	-1.1961763932	 0.139946
H	 0.2253589087	 2.4691546354	 1.1675224064	 0.08691
H	 1.3220900828	 0.4338514542	 1.8206392276	 0.11092
H	 0.215933998	-0.4103407328	 0.7310831167	 0.124417
H	 3.0617424919	 0.4966225166	 0.2076745928	 0.109871
H	 2.1927598693	-0.820488071	-0.5907121245	 0.105088
H	 2.5623494703	 1.6014729915	-1.892815484	 0.10811
H	 1.0152366188	 0.7335716846	-2.0522696346	 0.100738
46.8482	54.8881	99.481	179.95	243.8798	269.8982	332.2726	379.4845	558.7955	602.6539	614.5036	618.3265	679.4273	747.3718	820.8529	860.239	918.9543	928.9217	937.6514	956.8025	981.2599	1036.2016	1054.8562	1059.1872	1107.231	1137.6134	1210.4506	1230.8337	1255.6783	1284.964	1309.5811	1323.3571	1363.4861	1380.0247	1394.122	1409.5715	1481.2942	1483.0803	1498.0918	1517.366	2233.4298	3006.9374	3027.6591	3050.5732	3060.8021	3078.9543	3081.711	3101.7544	3110.6144	3132.4825	3504.1391
C#CCOC1CCCO1	C#CCO[C@H]1CCCO1	
InChI=1S/C7H10O2/c1-2-5-8-7-4-3-6-9-7/h1,7H,3-6H2	InChI=1S/C7H10O2/c1-2-5-8-7-4-3-6-9-7/h1,7H,3-6H2/t7-/m1/s1
