19
gdb 288	2.4715524	2.2004654	1.5662528	1.0906	73.92	-0.23673	0.08725	0.32398	905.9425	0.160197	-422.529725	-422.523028	-422.522084	-422.560284	28.145	
C	 0.0227634167	 1.4719500511	-0.038968326	-0.432893
C	 1.3326375668	 0.7278596967	 0.0020547759	 0.09892
O	 2.140148465	 0.4580267763	-1.1041891696	-0.258514
C	 2.3809127444	-0.962874859	-1.1396899831	-0.085931
C	 1.0790488148	-1.7814112492	-0.90439473	 0.095772
C	-0.0861901118	-0.8624563177	-1.2644144051	-0.277338
C	 0.0300741648	-0.0324980301	 0.0117705729	 0.261399
C	-0.0194219243	-1.1022213951	 1.0722012062	-0.145531
O	 0.8563113537	-2.1006318841	 0.4928350554	-0.293838
H	-0.2233439268	 2.0489970136	 0.8466995154	 0.121482
H	-0.3145104081	 1.9158393013	-0.9697102245	 0.125947
H	 1.8783878825	 0.7803924286	 0.9457705552	 0.085233
H	 2.7882220243	-1.1679365445	-2.134521034	 0.107327
H	 3.126711451	-1.2440795111	-0.3828740531	 0.105093
H	 1.1327345866	-2.7339731763	-1.4376494704	 0.078738
H	 0.0751773621	-0.2944704612	-2.1795766252	 0.11696
H	-1.0394234154	-1.3953910034	-1.3222858023	 0.101565
H	 0.3867527527	-0.789999993	 2.0396309118	 0.102815
H	-1.0168959289	-1.535268603	 1.2293952405	 0.092796
205.859	267.4542	358.1861	364.7686	393.913	455.6505	529.8667	564.8721	598.1253	765.5715	785.3907	823.4403	854.3653	866.4203	891.7357	915.7581	960.6291	987.5265	998.5894	1008.5561	1049.7156	1059.2375	1077.3854	1092.7305	1114.2043	1157.5291	1173.3966	1193.5499	1241.8846	1263.9044	1285.58	1313.049	1326.8037	1350.8893	1368.8376	1386.2842	1428.6202	1476.5736	1485.7213	1492.4732	1529.6731	3005.0923	3009.4203	3065.14	3070.0096	3078.0988	3084.9194	3091.892	3129.0898	3146.1987	3215.6978
C1C2OCC3CC12CO3	C1[C@@H]2OC[C@@H]3C[C@]12CO3	
InChI=1S/C7H10O2/c1-5-3-8-6-2-7(1,6)4-9-5/h5-6H,1-4H2	InChI=1S/C7H10O2/c1-5-3-8-6-2-7(1,6)4-9-5/h5-6H,1-4H2/t5-,6-,7+/m0/s1
