19
gdb 309	2.9832885	1.5910763	1.1823737	1.1106	73.35	-0.24645	0.07344	0.31989	1050.8275	0.159478	-422.532067	-422.524795	-422.523851	-422.563899	28.538	
C	-0.0324613505	 1.1829134025	 0.7161418728	-0.100463
O	 0.0180779552	-0.2010090533	 0.31362983	-0.291414
C	 1.1739670545	 0.0404135487	-0.5271600828	 0.126514
C	 0.8336335394	-0.0061859202	-2.0149168797	-0.227543
C	 1.7786479468	 0.8937228399	-2.8307411973	-0.244649
C	 1.7119522785	 2.3343717599	-2.3441894382	 0.047737
O	 2.7683185288	 2.7786326409	-1.4854780216	-0.257506
C	 1.4674301633	 2.6111551627	-0.9137696598	 0.022442
C	 1.3340678755	 1.4708025466	 0.0591553423	-0.079202
H	-0.8811413297	 1.7136527409	 0.2610673254	 0.095195
H	-0.088611422	 1.2945378744	 1.804145145	 0.107449
H	 1.9864132211	-0.6546740034	-0.2862250141	 0.081407
H	 0.862375428	-1.0379066458	-2.3795604083	 0.104185
H	-0.1966791966	 0.3467922349	-2.1403842712	 0.10732
H	 2.8141852067	 0.5457238229	-2.7440268953	 0.120021
H	 1.5147186568	 0.8456843836	-3.8914385942	 0.104846
H	 1.4000096751	 3.0826080173	-3.072751842	 0.09276
H	 0.9810965609	 3.5466979289	-0.6310532759	 0.091704
H	 2.1375686284	 1.5270953687	 0.797697115	 0.099199
89.3798	171.0279	221.0695	363.6696	382.9607	422.2988	452.0063	511.2944	689.0123	733.4995	776.9819	808.4526	847.085	899.7128	914.3046	963.4214	981.8314	1017.3882	1022.591	1047.5148	1064.5754	1070.6114	1088.2022	1142.3852	1161.8207	1180.1594	1196.576	1211.5931	1258.6298	1282.3523	1292.6942	1331.4227	1337.2184	1356.7388	1374.5123	1389.3214	1392.9192	1455.4659	1482.6557	1495.884	1526.9739	2997.6378	3034.1225	3039.4042	3044.4939	3059.578	3080.2958	3084.1308	3088.1114	3091.1497	3112.6135
C1OC2CCC3OC3C12	C1O[C@H]2CC[C@@H]3O[C@@H]3[C@@H]12	
InChI=1S/C7H10O2/c1-2-6-7(9-6)4-3-8-5(1)4/h4-7H,1-3H2	InChI=1S/C7H10O2/c1-2-6-7(9-6)4-3-8-5(1)4/h4-7H,1-3H2/t4-,5-,6-,7+/m0/s1
