19
gdb 333	2.2815649	1.9399259	1.1945147	2.3077	73.14	-0.26379	0.06973	0.33352000000000004	1040.8519	0.159094	-422.528905	-422.521586	-422.520642	-422.560319	29.375	
C	 0.7173035431	-1.8933290604	 2.2726313895	-0.208162
C	 0.7974672799	-0.424339662	 1.8046290789	-0.232851
C	 1.837755635	-0.1764126953	 0.7287750755	 0.064761
O	 1.4523558049	 0.7127327664	-0.3294912678	-0.258263
C	 1.6112375808	-0.6715573367	-0.6405675229	 0.005885
C	 0.3481625064	-1.4290258098	-0.9564287611	 0.005915
O	 0.5157131747	-2.785250746	-1.3697384103	-0.258264
C	-0.0700606857	-2.5397897881	-0.0830070428	 0.064746
C	 0.7756391398	-2.9170404033	 1.1184960384	-0.232846
H	 1.5344305022	-2.1172703754	 2.9679741333	 0.105197
H	-0.2081753618	-2.0178028331	 2.8465123906	 0.105196
H	-0.1674474872	-0.1183171222	 1.3889545155	 0.117858
H	 0.9853767603	 0.2295579123	 2.6630526385	 0.103625
H	 2.8688881187	-0.0477264743	 1.0602858149	 0.092176
H	 2.4643006839	-0.9036112876	-1.2787682149	 0.105681
H	-0.4026837866	-0.8686407118	-1.5141649434	 0.105679
H	-1.1340465363	-2.7739430604	-0.0301444445	 0.092179
H	 0.4830556287	-3.9070589452	 1.4846119281	 0.103626
H	 1.8063928391	-3.0115472671	 0.7633766445	 0.11786
183.7218	197.5022	263.7723	303.9617	321.3369	413.6937	433.6039	478.5912	584.1398	653.3927	795.0756	810.9123	828.9964	839.3475	863.4168	888.5418	961.0262	962.8418	1012.9258	1058.0287	1072.5401	1085.4736	1095.1488	1104.2042	1158.0541	1162.8203	1218.4834	1222.6801	1268.176	1276.5755	1300.6428	1316.4595	1352.6347	1369.919	1385.2367	1399.9673	1463.6168	1467.365	1488.7362	1498.642	1505.2062	3032.8538	3046.4181	3050.817	3064.1172	3085.8165	3089.9708	3101.3673	3103.2027	3113.1292	3113.7486
C1CC2OC2C2OC2C1	C1C[C@@H]2O[C@@H]2[C@H]2O[C@H]2C1	
InChI=1S/C7H10O2/c1-2-4-6(8-4)7-5(3-1)9-7/h4-7H,1-3H2	InChI=1S/C7H10O2/c1-2-4-6(8-4)7-5(3-1)9-7/h4-7H,1-3H2/t4-,5-,6-,7-/m0/s1
