19
gdb 352	3.0033409	1.6667048	1.2602104	0.2647	75.96	-0.23163	0.0098	0.24143	1022.0282	0.159848	-422.561471	-422.554266	-422.553322	-422.59292	28.775	
C	-1.5610352253	 2.0052518794	 0.9750401525	-0.297393
C	-0.0594945891	 1.8632194568	 0.9957547246	-0.052479
C	 0.355667351	 0.7776810203	 0.3406911496	-0.088959
C	-0.8043649567	 0.0250485968	-0.2566790315	 0.052376
O	-0.8985607891	 0.3674645645	-1.6438137277	-0.27491
C	-2.1653541791	 0.0238752748	-2.1807418727	-0.077732
C	-3.2564217318	 0.7883127411	-1.4487304845	-0.084235
O	-3.2602358617	 0.4547907125	-0.068743744	-0.272009
C	-2.0000554636	 0.5763517666	 0.5626744518	 0.113768
H	-1.9889352794	 2.3073649974	 1.9360633483	 0.107402
H	-1.8759771278	 2.7542068811	 0.2369436826	 0.118476
H	 0.5905753092	 2.5813987954	 1.4840355385	 0.098598
H	 1.3858151568	 0.4792936442	 0.1887626509	 0.099919
H	-0.7281051166	-1.0698775975	-0.1695614108	 0.065405
H	-2.1425143684	 0.2903544705	-3.2419454663	 0.106369
H	-2.3473611787	-1.0603028686	-2.0921474235	 0.090672
H	-3.1000448673	 1.8686786977	-1.5949133455	 0.095416
H	-4.249447254	 0.5284399763	-1.8284362371	 0.106325
H	-2.0809858683	-0.0256199994	 1.4736422949	 0.092992
127.4507	172.1432	274.4046	331.4365	399.5487	424.2114	470.9355	521.7858	609.3092	698.2702	745.0523	781.8814	824.5244	883.8623	920.5364	927.4044	969.97	976.1553	1005.9059	1032.4663	1060.8086	1091.7589	1116.8932	1132.2951	1137.7497	1153.0192	1183.9706	1265.5737	1281.279	1299.5175	1316.5083	1325.1629	1359.088	1378.6731	1383.3463	1403.6503	1416.9685	1478.1253	1484.2759	1492.9709	1676.8379	2968.9042	2981.9737	2988.1462	3031.1058	3054.5997	3079.0935	3082.6645	3084.0992	3184.2202	3214.0417
C1C=CC2OCCOC12	C1C=C[C@@H]2OCCO[C@H]12	
InChI=1S/C7H10O2/c1-2-6-7(3-1)9-5-4-8-6/h1-2,6-7H,3-5H2	InChI=1S/C7H10O2/c1-2-6-7(3-1)9-5-4-8-6/h1-2,6-7H,3-5H2/t6-,7+/m0/s1
