19
gdb 26	2.2283842	1.35983	0.8943413	0.8952	80.89	-0.19038	0.02804	0.21842	1337.3089	0.155489	-422.591489	-422.581761	-422.580817	-422.626308	34.957	
C	 1.5817087967	-0.8192131975	 0.0055559581	-0.364518
C	 0.7864205357	 0.4958065654	 0.0934204278	-0.309
C	 1.5950650999	 1.7097785332	-0.2002010762	 0.205684
C	 1.5666395937	 2.6551500808	-1.183121074	 0.23146
O	 0.7252474713	 2.77937674	-2.2473980923	-0.442234
C	 2.6294074436	 3.5786348307	-0.9208925229	-0.356322
C	 3.242539103	 3.1347562351	 0.2090210539	 0.370386
C	 4.3971700801	 3.6332591558	 1.0014214827	-0.491616
O	 2.6310192592	 2.0058401486	 0.6595045589	-0.222817
H	 0.9494476016	-1.6767258929	 0.2562471879	 0.109898
H	 1.9825815503	-0.9678670928	-1.001691294	 0.118717
H	 2.4246015002	-0.8010239126	 0.7017554707	 0.132609
H	-0.0568609374	 0.4643690138	-0.6091185411	 0.08803
H	 0.3366462002	 0.5784820469	 1.0924175519	 0.118139
H	 0.0888857364	 2.0573788176	-2.229772834	 0.29455
H	 2.8858798946	 4.448331645	-1.5044290538	 0.110537
H	 4.1058065427	 3.8704253727	 2.0312056721	 0.136162
H	 5.200701413	 2.8894404216	 1.0534436002	 0.135799
H	 4.7993806951	 4.5391644888	 0.5427479244	 0.134536
59.7779	112.8939	127.2597	188.9544	201.4596	262.0247	277.1252	283.1039	318.4339	412.2679	504.2851	592.6862	624.4705	646.3383	682.5955	768.7758	790.1307	799.2031	962.5243	975.1176	1015.4804	1059.7744	1062.8542	1081.3525	1113.2557	1166.7873	1217.8871	1279.014	1288.5431	1328.8175	1362.3316	1406.0276	1415.7529	1468.2246	1472.3072	1482.7028	1495.1287	1500.1532	1510.8848	1616.0199	1691.0435	3007.1237	3028.3167	3038.8626	3040.8428	3077.3316	3110.3398	3121.0556	3129.1645	3262.8206	3823.57
CCC1=C(O)C=C(C)O1	CCc1c(O)cc(C)o1	
InChI=1S/C7H10O2/c1-3-7-6(8)4-5(2)9-7/h4,8H,3H2,1-2H3	InChI=1S/C7H10O2/c1-3-7-6(8)4-5(2)9-7/h4,8H,3H2,1-2H3
