19
gdb 32	1.8301952	1.6443466	0.9539187	1.0814	78.71	-0.21288	0.01426	0.22714	1263.9859	0.156932	-422.584553	-422.575243	-422.574299	-422.619358	33.491	
C	 0.9621071935	-0.5264494661	 0.7691186864	-0.371887
C	 1.2371494763	 0.2214418997	-0.5477741194	-0.300231
C	 1.9870467637	 1.4959307347	-0.3569160954	 0.285454
C	 3.2517211641	 1.9069354935	-0.6799068661	 0.103686
C	 4.3157325848	 1.1218712093	-1.3952800931	-0.176574
O	 3.8354041666	 0.3997773994	-2.5263608019	-0.405627
C	 3.3665188584	 3.25644511	-0.1959412278	-0.276212
C	 2.1781882927	 3.5593039203	 0.3815895369	-0.022509
O	 1.3268300865	 2.5030266528	 0.2887024001	-0.181664
H	 0.3853389899	 0.0967979171	 1.4583700607	 0.127895
H	 0.3940403221	-1.4424093833	 0.5803861836	 0.113299
H	 1.897199351	-0.8016929175	 1.2664730135	 0.119834
H	 1.8197949933	-0.401035377	-1.2313372141	 0.135043
H	 0.2818420617	 0.4358025598	-1.0446232094	 0.111447
H	 5.1332177019	 1.802420714	-1.6790708318	 0.095418
H	 4.7549603964	 0.3593986022	-0.7417593551	 0.120964
H	 3.3501768535	 1.0251169418	-3.0753985549	 0.280748
H	 4.2278988831	 3.9021315444	-0.2771288976	 0.108722
H	 1.7871460104	 4.4360053551	 0.8707665254	 0.132191
59.7145	65.1284	149.935	167.6877	204.7728	250.029	331.783	351.8741	414.4383	437.7616	619.8674	664.5412	674.8567	733.1466	761.4882	794.6797	822.2509	909.446	966.9621	973.6975	1027.6497	1046.5953	1075.621	1083.6534	1154.0584	1176.4039	1214.5802	1233.9433	1270.2574	1307.6335	1350.5422	1373.7028	1405.5607	1417.7131	1448.0561	1485.994	1496.4372	1507.5863	1509.4996	1545.5432	1646.7971	2985.9148	3023.7846	3040.0274	3053.5345	3100.8676	3111.1558	3122.9015	3246.0344	3283.1316	3806.3975
CCC1=C(CO)C=CO1	CCc1c(CO)cco1	
InChI=1S/C7H10O2/c1-2-7-6(5-8)3-4-9-7/h3-4,8H,2,5H2,1H3	InChI=1S/C7H10O2/c1-2-7-6(5-8)3-4-9-7/h3-4,8H,2,5H2,1H3
