19
gdb 71	5.7206048	0.7380418	0.6618257	0.9037	79.33	-0.21246	0.02346	0.23592000000000002	1694.338	0.156222	-422.568543	-422.559247	-422.558303	-422.605038	32.333	
C	 6.116478842	 1.1643449755	-0.8400075947	-0.387321
C	 5.0422812278	 2.1199794139	-0.3505312758	-0.021826
O	 3.8272733504	 1.4059379987	-0.2328542383	-0.240866
C	 2.759522585	 2.2016200419	 0.2162742803	-0.169244
C	 1.5429957854	 1.3427563248	 0.298916873	 0.34008
C	 1.3092180929	 0.0312113168	 0.0358773937	-0.252902
C	-0.0818052834	-0.1887158739	 0.3156206496	-0.172348
C	-0.578581844	 1.0049866661	 0.724975429	-0.024518
O	 0.4017785389	 1.9534943579	 0.7208410414	-0.184902
H	 6.2448287727	 0.3384470553	-0.134771212	 0.128678
H	 5.8428904372	 0.7460219986	-1.8126807065	 0.128675
H	 7.0723742122	 1.6864985594	-0.942161019	 0.116278
H	 5.3224905616	 2.5535473856	 0.6243960748	 0.088664
H	 4.9204121409	 2.9611829315	-1.0537442209	 0.088666
H	 2.9823060485	 2.6437712016	 1.2044407042	 0.104058
H	 2.5815075735	 3.0504206005	-0.4688878876	 0.104059
H	 2.038183018	-0.6815064478	-0.3120418535	 0.116991
H	-0.6296286894	-1.1132992386	 0.2219514403	 0.108349
H	-1.5515639701	 1.3429598724	 1.0402401921	 0.12943
13.7134	67.024	99.7421	111.0959	230.3306	251.2702	272.0393	342.4213	493.0778	613.0682	638.9931	733.1289	736.222	809.6582	820.0205	852.0943	899.697	907.6254	967.295	1023.3178	1049.0082	1051.7542	1102.7285	1148.404	1166.6709	1182.6458	1188.4727	1234.1955	1239.9802	1244.5747	1295.1573	1375.5331	1399.7669	1419.1173	1461.4183	1482.9606	1498.9254	1509.6857	1534.4623	1545.3651	1644.6552	2933.656	2948.5227	2957.2469	2980.9837	3045.9116	3120.9583	3123.0842	3253.8521	3279.3328	3288.5689
CCOCC1=CC=CO1	CCOCc1ccco1	
InChI=1S/C7H10O2/c1-2-8-6-7-4-3-5-9-7/h3-5H,2,6H2,1H3	InChI=1S/C7H10O2/c1-2-8-6-7-4-3-5-9-7/h3-5H,2,6H2,1H3
