19
gdb 38	3.2146974	1.1570518	0.8646452	1.0399	81.35	-0.18139	0.04401	0.2254	1360.7086	0.154922	-422.578352	-422.568324	-422.56738	-422.615167	34.733	
C	 1.3221867369	-0.4776405027	 0.221232665	-0.243865
O	 0.7428110646	 0.8103665214	 0.0325628218	-0.269937
C	 0.0271586839	 1.3133910652	 1.0454279077	 0.454054
C	-0.6031057229	 2.5089067329	 1.1659872624	-0.429472
C	-1.2164461748	 2.4935313885	 2.4731256811	 0.196803
C	-2.0293671894	 3.6021746861	 3.0664742963	-0.503293
C	-0.9086736354	 1.2947402289	 3.0373558433	 0.243927
C	-1.2072518598	 0.6383488588	 4.3354755481	-0.491089
O	-0.1348949704	 0.5550315233	 2.1535321292	-0.229566
H	 2.0169857413	-0.4810429071	 1.0676582248	 0.131811
H	 0.55346409	-1.2386185171	 0.3910771951	 0.132587
H	 1.8615497998	-0.6962006875	-0.7009841212	 0.13539
H	-0.6310171356	 3.2959341775	 0.4307177417	 0.104312
H	-2.3856408322	 3.3528079087	 4.0694597958	 0.120037
H	-1.4466479023	 4.5277353583	 3.1422774361	 0.128017
H	-2.9070943615	 3.8276162374	 2.4494544104	 0.12808
H	-1.7581088232	-0.3011758548	 4.2029183865	 0.129862
H	-0.2937466465	 0.4030118629	 4.8957244416	 0.129746
H	-1.8179631526	 1.2987575393	 4.9551078143	 0.132596
9.1475	105.8219	139.1589	152.2216	193.0179	205.2873	208.7141	264.4033	358.1726	361.3824	526.6153	609.9373	633.7262	634.322	674.7328	745.3721	779.4442	959.2885	986.4104	1011.087	1058.6857	1062.4853	1066.135	1150.3296	1177.1445	1192.1012	1209.0922	1236.8591	1333.7352	1400.5466	1424.5665	1429.6957	1469.9318	1479.2849	1481.4442	1484.7665	1495.8163	1497.416	1503.0191	1652.1118	1691.4264	3017.4116	3026.4679	3030.6452	3060.3077	3073.7253	3096.3373	3111.0029	3125.7461	3147.1241	3266.8588
COC1=CC(C)=C(C)O1	COc1cc(C)c(C)o1	
InChI=1S/C7H10O2/c1-5-4-7(8-3)9-6(5)2/h4H,1-3H3	InChI=1S/C7H10O2/c1-5-4-7(8-3)9-6(5)2/h4H,1-3H3
