19
gdb 95	8.8673766	0.50321	0.4937681	2.3277	79.63	-0.26219	0.05264	0.31483	2167.7343	0.153832	-422.481984	-422.471879	-422.470935	-422.518591	34.786	
C	 0.0269256255	-0.1290069635	 0.4123448114	-0.447963
C	 1.2202558341	-0.0669111801	 0.284704167	 0.286366
C	 2.6615997812	 0.0209859005	 0.0957200115	-0.350321
C	 3.0320738389	 0.5344190468	-1.2997703347	-0.045488
O	 4.4387211116	 0.5845225391	-1.3733835747	-0.246639
C	 4.9171980372	 1.0510495969	-2.6157114491	-0.077373
C	 6.419922974	 1.0642843202	-2.5750662388	 0.082215
C	 7.2142344788	 0.9640743086	-3.8042310633	-0.181364
O	 7.0886128279	-0.1489388394	-2.9206735682	-0.225382
H	-1.0253606567	-0.1900187408	 0.5395341591	 0.196644
H	 3.1044951896	 0.6894825472	 0.8434334712	 0.140038
H	 3.126752432	-0.9610087812	 0.2412548548	 0.144461
H	 2.6212074637	-0.1370963559	-2.0700239787	 0.102963
H	 2.5932509653	 1.5316787049	-1.4647986207	 0.098894
H	 4.5802949404	 0.4020318594	-3.4398934297	 0.097813
H	 4.5422092896	 2.0707090794	-2.8143988526	 0.091114
H	 6.8468300924	 1.5834320536	-1.7165761996	 0.101834
H	 6.7111758991	 0.8574627295	-4.7650247874	 0.11401
H	 8.1990264954	 1.4266138249	-3.8474865475	 0.118178
39.1161	62.8823	84.2056	115.6844	145.8469	172.3033	298.1365	321.3949	355.006	445.7103	475.9418	550.881	623.418	649.8828	798.6598	806.5302	870.6704	944.5374	969.8357	994.9608	1035.6085	1064.5609	1090.0176	1109.157	1149.5037	1159.0286	1167.2743	1176.2933	1229.1142	1271.6367	1293.485	1301.0272	1306.2143	1367.8597	1421.5508	1469.0725	1477.1912	1497.7638	1529.3652	1534.0484	2242.4398	2949.8878	2972.3726	2997.06	3003.7684	3036.892	3074.5529	3082.0979	3115.2976	3167.8489	3507.4123
C#CCCOCC1CO1	C#CCCOC[C@@H]1CO1	
InChI=1S/C7H10O2/c1-2-3-4-8-5-7-6-9-7/h1,7H,3-6H2	InChI=1S/C7H10O2/c1-2-3-4-8-5-7-6-9-7/h1,7H,3-6H2/t7-/m1/s1
