19
gdb 226	2.7279166	2.1296965	1.9099051	2.1207	71.45	-0.25113	0.08413	0.33526	841.3243	0.162492	-422.578933	-422.573044	-422.5721	-422.608727	25.922	
C	 0.0269601681	 3.5620880796	-0.5011604875	-0.214086
C	 0.7344569321	 2.6438072108	-1.5346230432	-0.085476
C	 1.9263771463	 1.9917547452	-0.8038963283	-0.200249
C	 1.4022143412	 1.4733840789	 0.5679519769	-0.223204
C	-0.0895025937	 1.1823860465	 0.3608877737	 0.065896
O	-0.1561059022	 0.4706751068	-0.8938034445	-0.259018
C	-0.4023598457	 1.5568976523	-1.7664007502	 0.187544
O	-1.5714513974	 2.1307484669	-1.2084835835	-0.249225
C	-0.9362958179	 2.4933081244	 0.0295047273	 0.039813
H	 0.7169444705	 3.9874528477	 0.2303552755	 0.097141
H	-0.5486462318	 4.3698340157	-0.9567028319	 0.106628
H	 1.0257699599	 3.1409641722	-2.4606886273	 0.070063
H	 2.3281805495	 1.1611446949	-1.389383927	 0.109787
H	 2.7337300115	 2.7182110459	-0.6705164245	 0.094602
H	 1.9185365342	 0.555132595	 0.8603533259	 0.106712
H	 1.5597969134	 2.1984242295	 1.3733056654	 0.098438
H	-0.5396929401	 0.5687637526	 1.1428040825	 0.081391
H	-0.5721445957	 1.2000567509	-2.7808511578	 0.091354
H	-1.6778348822	 2.7806186442	 0.7732444285	 0.081891
300.9074	327.8702	403.0491	479.0237	534.4392	598.6597	636.4833	692.307	755.5908	786.716	814.8242	845.5908	886.8657	890.6995	913.2141	938.2778	952.1731	981.3679	988.1762	1013.3448	1038.6597	1059.4315	1079.1772	1090.205	1114.6062	1181.779	1205.8025	1235.0424	1249.295	1273.6578	1292.6896	1308.4167	1313.8218	1320.1449	1327.6671	1346.3428	1362.0846	1373.2068	1483.5628	1492.113	1512.8356	3047.2941	3057.7663	3075.8213	3086.9435	3098.4496	3101.2184	3105.863	3125.9885	3136.5021	3146.5286
C1C2CCC3OC2OC13	C1[C@H]2CC[C@@H]3O[C@H]2O[C@H]13	
InChI=1S/C7H10O2/c1-2-5-6-3-4(1)7(8-5)9-6/h4-7H,1-3H2	InChI=1S/C7H10O2/c1-2-5-6-3-4(1)7(8-5)9-6/h4-7H,1-3H2/t4-,5+,6-,7+/m1/s1
