19
gdb 47	3.1032539	1.2266959	0.8939	0.5445	80.11	-0.19719	0.03379	0.23098000000000002	1317.9658	0.155247	-422.575439	-422.565587	-422.564643	-422.610387	34.645	
C	 1.0610400118	 0.3303111304	-0.6980460649	-0.249115
O	 0.4736439535	-0.3491540468	 0.3956789516	-0.25706
C	-0.0620142612	 0.4526579748	 1.345686113	 0.278969
C	-0.1296840587	 1.8102343827	 1.4247297821	-0.192637
O	-0.7721311656	 2.1587582261	 2.5841089992	-0.197068
C	-1.1071305196	 1.0077908265	 3.232300733	 0.304678
C	-1.8203048846	 1.1697562401	 4.5272306722	-0.49031
C	-0.6975712062	-0.0814596464	 2.5214840191	 0.01559
C	-0.8447483688	-1.5358202891	 2.8373075419	-0.505723
H	 1.8857469896	 0.9753891343	-0.3653770825	 0.121137
H	 1.4464098243	-0.4327431076	-1.3760171846	 0.133403
H	 0.3196200207	 0.9472823464	-1.2239483022	 0.121136
H	 0.1983040622	 2.6212083306	 0.7999171216	 0.126955
H	-2.0424790239	 0.1934720884	 4.9628786802	 0.132661
H	-1.2182434611	 1.7350792661	 5.2479532031	 0.136703
H	-2.7661691106	 1.7085480539	 4.3987634843	 0.136707
H	-1.3629460325	-1.6896259275	 3.7873948984	 0.119488
H	-1.4107519533	-2.0580343238	 2.0576554792	 0.132239
H	 0.130925304	-2.0304712792	 2.9030409654	 0.132245
82.5893	90.5111	114.873	160.8891	184.6699	219.4001	259.3528	279.7351	336.935	385.749	511.1879	590.6615	613.5685	645.5251	703.2781	734.0926	738.5449	929.5741	968.9161	1057.8975	1058.4902	1067.6364	1145.844	1160.168	1182.4485	1192.9881	1227.5844	1258.5091	1321.5822	1407.231	1425.1546	1444.9261	1472.2469	1476.2331	1479.5716	1482.3613	1490.1518	1497.3546	1508.8938	1618.2253	1689.5823	2997.0932	3029.1274	3031.2013	3052.3314	3077.9417	3079.0351	3113.5965	3130.9747	3135.3355	3293.4481
COC1=COC(C)=C1C	COc1coc(C)c1C	
InChI=1S/C7H10O2/c1-5-6(2)9-4-7(5)8-3/h4H,1-3H3	InChI=1S/C7H10O2/c1-5-6(2)9-4-7(5)8-3/h4H,1-3H3
