19
gdb 343	2.3454593	1.7815774	1.1680086	1.8474	75.65	-0.252	0.00556	0.25756	1066.7627	0.15874	-422.522605	-422.514804	-422.51386	-422.554869	30.262	
C	 0.9906045613	-2.6041872791	-1.0450498129	-0.119507
O	 1.2749912331	-1.7463399601	-2.1559722014	-0.252522
C	 1.1043301154	-0.3637032899	-1.8945062424	-0.108439
C	 1.839925071	 0.0520011756	-0.6410925279	 0.039494
O	 1.4482731919	 1.2617467264	 0.0016942574	-0.260828
C	 1.1899926942	 0.02222305	 0.6803051583	 0.039676
C	-0.2775385216	-0.3108348849	 0.9200602841	-0.28647
C	-0.9037766597	-1.541727773	 0.3093848242	-0.027507
C	-0.4131235866	-2.4819711207	-0.5015368984	-0.08862
H	 1.1444958435	-3.611869804	-1.4387205626	 0.110081
H	 1.7297062185	-2.4505874484	-0.2486061004	 0.100207
H	 1.5136204254	 0.1522422116	-2.7688536821	 0.114202
H	 0.0439688569	-0.0924075585	-1.8078491737	 0.103051
H	 2.9190174634	-0.1125842809	-0.6754892369	 0.09498
H	 1.8451459829	-0.1409298235	 1.5365358289	 0.09845
H	-0.4471145885	-0.3503038618	 2.0047424747	 0.119175
H	-0.8598933087	 0.5562321789	 0.580704553	 0.138936
H	-1.9569010637	-1.6313811238	 0.5764047114	 0.09398
H	-1.1091543288	-3.245717774	-0.8404716233	 0.091659
77.8749	212.6422	255.2914	264.5408	278.6815	373.9822	409.0991	453.4276	546.4583	575.0351	689.2991	756.3234	784.8943	831.1417	877.9083	919.2989	941.5961	989.6276	1005.4219	1024.6592	1046.6361	1076.0407	1082.9461	1120.3876	1158.1292	1165.6918	1245.5715	1257.0879	1279.8713	1297.5306	1309.0073	1358.7371	1378.6289	1397.4489	1407.6218	1436.3872	1461.4177	1482.5373	1504.6808	1508.6296	1725.2265	3015.0169	3019.8262	3024.3329	3041.4293	3076.509	3090.641	3093.7683	3105.7531	3120.3	3156.3266
C1OCC2OC2CC=C1	C1OC[C@H]2O[C@H]2CC=C1	
InChI=1S/C7H10O2/c1-2-4-8-5-7-6(3-1)9-7/h1-2,6-7H,3-5H2/b2-1-	InChI=1S/C7H10O2/c1-2-4-8-5-7-6(3-1)9-7/h1-2,6-7H,3-5H2/b2-1-/t6-,7+/m0/s1
