19
gdb 363	4.3692042	1.0674882	0.910176	0.4718	77.59	-0.22804	0.01431	0.24234999999999998	1291.0944	0.157615	-422.533697	-422.525419	-422.524475	-422.567763	29.896	
C	-1.1798136915	 5.0533740521	 0.0118208013	-0.060655
C	-0.0114512646	 4.3996157718	 0.7769664736	-0.295024
C	-0.7548349701	 3.0775662887	 0.4937320508	 0.148975
O	-1.7875228422	 3.7677937865	-0.2483065373	-0.299078
C	-0.0434524079	 2.0455079734	-0.381587242	 0.064737
O	 1.0164841264	 1.4465663927	 0.3672863065	-0.281181
C	 0.8593253024	 0.0280703124	 0.4031540495	-0.114935
C	-0.4168895654	-0.2421130472	-0.3431766314	-0.096168
C	-0.9240554963	 0.8985520118	-0.7955156899	-0.095636
H	-1.8353598034	 5.6973791699	 0.6108545862	 0.102429
H	-0.9221093949	 5.5777509679	-0.9159974902	 0.103892
H	 0.9660987178	 4.4792925862	 0.2980688446	 0.117682
H	 0.0812954747	 4.6732124471	 1.8281947303	 0.112258
H	-1.1615499894	 2.5749473413	 1.3810797715	 0.074209
H	 0.3735535095	 2.5726934566	-1.256670008	 0.077755
H	 1.7305901154	-0.4578031044	-0.0648362441	 0.105146
H	 0.8216872456	-0.3152197524	 1.4484636461	 0.106971
H	-0.8253328452	-1.2360944875	-0.4752799331	 0.106969
H	-1.8307554508	 1.0404643629	-1.3676305341	 0.121653
63.0429	70.3648	96.1308	157.1598	288.5431	332.1125	413.015	488.5835	714.0644	766.6958	777.5658	815.3469	833.1273	888.8076	931.4397	935.2223	958.301	964.553	984.3236	1030.13	1043.2112	1047.8589	1091.5628	1111.8864	1117.5443	1154.991	1170.0405	1197.6442	1214.1616	1257.3254	1269.1624	1293.7622	1309.5395	1350.1558	1361.4828	1382.6571	1402.5703	1491.6167	1521.6599	1531.1612	1688.823	2953.7795	2973.7414	2993.7834	3015.1023	3022.2249	3056.815	3084.7722	3140.1667	3211.2206	3241.197
C1CC(O1)C1OCC=C1	C1C[C@@H](O1)[C@H]1OCC=C1	
InChI=1S/C7H10O2/c1-2-6(8-4-1)7-3-5-9-7/h1-2,6-7H,3-5H2	InChI=1S/C7H10O2/c1-2-6(8-4-1)7-3-5-9-7/h1-2,6-7H,3-5H2/t6-,7+/m0/s1
