19
gdb 86	3.8862663	0.9626346	0.8132931	1.6291	76.84	-0.26075	0.04785	0.3086	1387.4779	0.157338	-422.524554	-422.515912	-422.514968	-422.558104	32.374	
C	-0.1617031951	-0.1093777308	 0.1390497198	-0.434323
C	 1.0390687455	-0.06107953	 0.1154018136	 0.297717
C	 2.4966256158	-0.0079430617	 0.1155616459	-0.380935
C	 3.1164372882	-0.2312356687	 1.5088834186	-0.007888
C	 2.7058909054	 0.8554728577	 2.5121278132	-0.088304
O	 3.3834963198	 0.6779793591	 3.7477439841	-0.233259
C	 4.7728703207	 0.6786489317	 3.5670343199	 0.014836
O	 5.2143177812	-0.3616549175	 2.7344346657	-0.236383
C	 4.6493378676	-0.2547332769	 1.4370131859	-0.100632
H	-1.2226241635	-0.1527613826	 0.1481443958	 0.198206
H	 2.8872941431	-0.764678806	-0.5776143457	 0.134073
H	 2.825839674	 0.9631270911	-0.2797594494	 0.130966
H	 2.7793155373	-1.1968253576	 1.9014667765	 0.103012
H	 2.9386829525	 1.8521271078	 2.0950028867	 0.084788
H	 1.6359053393	 0.818248109	 2.7259813788	 0.127438
H	 5.0957981068	 1.6527075499	 3.1483613353	 0.072273
H	 5.2261372413	 0.5179959254	 4.5469190535	 0.119175
H	 5.0127556833	 0.6639343734	 0.9414375459	 0.085379
H	 5.0131568667	-1.1132242035	 0.8648712759	 0.113861
68.0043	106.9137	170.158	259.529	280.8915	345.9794	379.4609	394.7179	447.7489	473.4661	561.749	623.3575	642.0275	678.3981	846.0048	912.7725	925.6971	936.6716	976.8954	987.6476	1066.3527	1069.5711	1097.5404	1122.1715	1179.6659	1199.5851	1234.2878	1237.9934	1290.8079	1321.3776	1333.4942	1352.3414	1369.3217	1389.1242	1422.778	1443.7629	1471.4175	1494.3399	1496.4639	1511.1146	2238.8449	2906.0024	2941.9828	2951.3457	3010.2993	3039.2502	3059.6722	3084.267	3111.0817	3116.8802	3505.3771
C#CCC1COCOC1	C#CCC1COCOC1	
InChI=1S/C7H10O2/c1-2-3-7-4-8-6-9-5-7/h1,7H,3-6H2	InChI=1S/C7H10O2/c1-2-3-7-4-8-6-9-5-7/h1,7H,3-6H2
