19
gdb 395	2.7440153	1.4410519	1.2121666	0.224	74.77	-0.2336	0.05865	0.29225	1092.978	0.156272	-422.488984	-422.480714	-422.479769	-422.522491	30.874	
C	-1.7208049513	 1.3468812849	-2.3265518695	-0.337773
C	-0.8471951818	 2.5959893038	-2.3463526424	-0.337773
C	-1.1986343864	 1.9320348638	-1.0562054129	 0.414125
O	-2.0680896125	 2.5551108999	-0.1094252821	-0.314648
C	-1.2900623515	 2.0281042586	 0.9879630646	-0.137736
C	-0.3121344342	 1.3291709222	 0.0281339785	 0.129742
C	 1.2124887828	 1.5262737893	 0.0939851853	-0.133504
O	 1.4416779047	 0.1050790451	 0.1683719186	-0.274212
C	 0.0272648012	-0.1687918924	 0.1206317728	-0.133518
H	-2.7804805049	 1.472947751	-2.5206524876	 0.128508
H	-1.2977070878	 0.4158967269	-2.6903652399	 0.119116
H	 0.1669252672	 2.5100548371	-2.7235526614	 0.119118
H	-1.3321202979	 3.543840262	-2.5534912705	 0.128509
H	-0.8555919831	 2.8262489206	 1.6025655242	 0.106814
H	-1.8815356241	 1.3592827411	 1.6254418429	 0.106809
H	 1.6708973961	 1.9742375453	-0.79691672	 0.105632
H	 1.57811871	 2.0525817392	 0.9858032733	 0.102581
H	-0.2491564698	-0.7717558824	-0.7537496397	 0.10563
H	-0.3282713068	-0.6738693057	 1.0286609158	 0.102581
61.2361	69.5851	184.6767	232.6138	263.6133	351.3068	394.814	498.5734	515.0164	568.5471	758.7577	852.0127	866.4011	876.1813	879.405	892.2969	947.2384	968.7572	995.2318	997.0894	1022.5305	1040.7561	1048.1897	1069.3007	1143.3232	1145.8661	1154.5344	1173.5425	1184.0316	1193.204	1234.236	1237.7168	1303.2243	1351.17	1372.297	1402.7052	1446.1836	1492.4923	1503.0046	1521.7969	1530.6196	2997.9928	3009.3731	3013.4378	3046.973	3047.8935	3059.3657	3127.1056	3129.1982	3211.1301	3225.0887
C1CC11OCC11COC1	C1CC21OCC12COC1	
InChI=1S/C7H10O2/c1-2-7(1)6(5-9-7)3-8-4-6/h1-5H2	InChI=1S/C7H10O2/c1-2-7(1)6(5-9-7)3-8-4-6/h1-5H2
