19
gdb 220	2.7874304	1.9585257	1.8645601	2.2882	72.88	-0.24168	0.07927	0.32095	864.7784	0.161383	-422.562605	-422.556286	-422.555342	-422.592881	26.737	
C	-1.0285438114	-1.418122549	-1.4849245326	-0.235738
C	-1.0028850272	-0.135052001	-0.6071803693	-0.049083
C	-0.6192355137	 1.0627988837	-1.4996709817	-0.249868
C	 0.8569374163	 0.8537443646	-1.8860967517	 0.198678
O	 1.6865990674	 1.1733312302	-0.7908474325	-0.2614
C	 1.4083235253	 0.3493611062	 0.3470557063	-0.097995
C	 0.3353650059	-0.6715668555	 0.0087487866	-0.056656
C	 0.5111612609	-1.4022390753	-1.3550985628	 0.11416
O	 1.077370249	-0.4853171964	-2.3007218823	-0.276196
H	-1.4727893889	-2.2699380763	-0.9622127121	 0.096394
H	-1.4366784907	-1.3417869494	-2.4961586091	 0.098573
H	-1.8465559338	 0.0712044347	 0.0544266482	 0.064782
H	-1.2574818352	 1.1119548279	-2.3882906787	 0.102124
H	-0.7019530039	 2.0162003802	-0.9693436781	 0.108451
H	 1.1866822829	 1.4921247762	-2.707210292	 0.087145
H	 2.3400021218	-0.1508079634	 0.6436865451	 0.106043
H	 1.0946211623	 0.9877784736	 1.185987046	 0.097795
H	 0.1649320374	-1.3724760777	 0.828485033	 0.077288
H	 1.0829976757	-2.3299686133	-1.4199593925	 0.075502
184.0975	314.727	336.7819	443.9272	449.5712	500.2786	575.948	674.8454	743.7186	801.7284	827.7509	835.6409	861.5342	876.9942	918.9937	933.8564	948.0328	979.6788	1033.0099	1039.2389	1067.3231	1082.372	1113.5809	1115.9552	1137.4801	1173.193	1196.192	1227.9079	1249.565	1263.2121	1284.0934	1301.6322	1332.4222	1348.7946	1354.3491	1367.7281	1394.6652	1416.2123	1473.7603	1490.3969	1520.6069	2991.8236	3027.1637	3043.8228	3052.2002	3080.9483	3087.6494	3093.2357	3097.3678	3108.5338	3113.9303
C1C2CC3OCC2C1O3	C1[C@@H]2C[C@H]3OC[C@@H]2[C@@H]1O3	
InChI=1S/C7H10O2/c1-4-2-7-8-3-5(4)6(1)9-7/h4-7H,1-3H2	InChI=1S/C7H10O2/c1-4-2-7-8-3-5(4)6(1)9-7/h4-7H,1-3H2/t4-,5+,6-,7+/m1/s1
