19
gdb 327	2.4061634	2.1675131	1.7350059	2.4213	73.18	-0.22935	0.06969	0.29904	888.7586	0.160363	-422.514371	-422.507717	-422.506773	-422.545042	27.572	
C	 0.3602851804	 2.581403948	 0.4909278375	-0.290329
C	 1.8491007761	 2.4884704431	 0.0262070395	 0.065494
O	 2.1423945684	 2.9207713623	-1.2813724449	-0.247839
C	 1.0651394879	 2.981883583	-2.2045468345	-0.072885
C	 0.296368939	 1.6585197794	-2.4472203709	-0.236911
C	 0.3570385247	 0.6397494572	-1.3128042602	 0.102781
O	 1.7396175631	 0.234049702	-1.0923310769	-0.290856
C	 1.738274059	 0.9072440584	 0.1601168996	 0.124122
C	 0.2045592366	 1.0834720728	 0.1845666468	-0.101485
H	 0.3194914096	 2.7533864356	 1.5707295659	 0.10771
H	-0.3019786519	 3.3033125154	 0.0112351958	 0.105105
H	 2.5829028488	 2.9664211182	 0.6801373156	 0.08253
H	 0.362654644	 3.7708026286	-1.9048049946	 0.095137
H	 1.5244978638	 3.3129691432	-3.139596965	 0.111065
H	-0.7501964462	 1.8889874817	-2.6842129438	 0.097598
H	 0.7123080889	 1.1470999569	-3.3223322055	 0.120377
H	-0.2558653194	-0.2311009835	-1.5704649703	 0.082093
H	 2.3458416068	 0.4208096852	 0.9263124859	 0.073535
H	-0.4737969897	 0.4705275026	 0.7779803199	 0.072757
151.1076	267.8877	314.8229	368.861	406.6315	483.5929	571.755	668.2098	692.0509	739.7392	793.4479	820.8061	834.0139	861.5031	910.5717	930.4504	950.1831	977.4136	1021.8148	1042.2792	1062.4897	1080.4965	1101.1535	1131.0467	1146.4865	1196.5512	1208.6472	1233.9229	1252.5597	1266.8788	1287.5227	1293.6773	1320.2642	1342.6022	1349.5588	1371.1418	1392.7003	1423.9183	1470.5584	1479.789	1523.0529	3006.8769	3025.5644	3043.6693	3060.6325	3068.8594	3073.823	3088.6184	3091.6023	3110.6734	3121.494
C1C2OCCC3OC2C13	C1[C@@H]2OCC[C@H]3O[C@@H]2[C@@H]13	
InChI=1S/C7H10O2/c1-2-8-6-3-4-5(1)9-7(4)6/h4-7H,1-3H2	InChI=1S/C7H10O2/c1-2-8-6-3-4-5(1)9-7(4)6/h4-7H,1-3H2/t4-,5+,6-,7+/m0/s1
