19
gdb 267	3.7384788	1.1646773	1.0802761	3.0805	75.27	-0.23719	0.0697	0.30689	1175.9867	0.157346	-422.483713	-422.475679	-422.474735	-422.516993	29.916	
C	-2.276123043	 2.6023644152	 1.2691949663	-0.339898
C	-1.4042066576	 3.7590938985	 0.8182239629	-0.191689
C	-1.5781895678	 3.9448804384	-0.6823086315	-0.087579
O	-1.3129149254	 2.5359789112	-0.9296527359	-0.320487
C	-1.0390547972	 2.3277386831	 0.4665338455	 0.477814
C	 0.0780581682	 1.4129908667	 0.8191698465	-0.154211
C	 1.4143547948	 1.5489696378	 0.0501392705	-0.085218
O	 1.3855193494	 0.1595262331	-0.3321436664	-0.271135
C	 0.0579699917	-0.0101092543	 0.2003613864	-0.084538
H	-2.2099124798	 2.3745283159	 2.3286980024	 0.11564
H	-3.2527328676	 2.439783622	 0.820690855	 0.116494
H	-0.9453242798	 4.4590643971	 1.503250667	 0.102423
H	-2.5661441032	 4.2493900815	-1.047626771	 0.106949
H	-0.8039338984	 4.5669524394	-1.1447890988	 0.111002
H	 0.2075077024	 1.3995499296	 1.9039659978	 0.083466
H	 1.3564230541	 2.2139695951	-0.8200028925	 0.108367
H	 2.3017938254	 1.794826319	 0.644460013	 0.09732
H	-0.6892546004	-0.1416327449	-0.5920676065	 0.115152
H	-0.0029874759	-0.8492700845	 0.9024895793	 0.100128
68.1868	86.8879	141.1191	215.0718	311.1437	355.7771	420.4307	500.947	619.8993	750.8187	808.7909	845.3128	872.8899	891.0979	933.2482	956.1406	973.2466	983.3455	993.839	1016.468	1031.9159	1039.1451	1042.6857	1072.7646	1097.5642	1130.6378	1161.1771	1165.8441	1173.4754	1203.5506	1245.5471	1279.7545	1310.4625	1311.608	1344.4384	1378.7904	1434.2879	1490.3152	1504.2444	1518.8663	1532.1727	3014.2697	3024.3451	3025.1866	3061.8326	3066.3193	3073.953	3088.563	3112.6056	3200.4736	3208.8639
C1C2COC12C1COC1	C1[C@@H]2CO[C@]12C1COC1	
InChI=1S/C7H10O2/c1-5-4-9-7(1,5)6-2-8-3-6/h5-6H,1-4H2	InChI=1S/C7H10O2/c1-5-4-9-7(1,5)6-2-8-3-6/h5-6H,1-4H2/t5-,7-/m1/s1
