19
gdb 73	5.3895157	0.6659358	0.6315599	1.7797	78.87	-0.21495	0.02032	0.23527	1759.1469	0.157236	-422.582047	-422.572921	-422.571977	-422.617236	32.599	
O	 6.2130122415	 1.8066003092	-1.2645153259	-0.418248
C	 5.3232028478	 2.0725574109	-0.1930171129	-0.05715
C	 3.9464676849	 1.4382059357	-0.3905784581	-0.193537
C	 2.9655001703	 1.7912460165	 0.7435604906	-0.323597
C	 1.6160296059	 1.1839918014	 0.5751161	 0.3765
C	 0.9026575608	 0.2657070813	 1.2828349608	-0.277815
C	-0.3427306521	 0.0905150117	 0.5927407749	-0.168406
C	-0.2916707821	 0.9153263996	-0.482965775	-0.021327
O	 0.8913786286	 1.5881108506	-0.5104707431	-0.179828
H	 6.3368085205	 0.8532946531	-1.3132112137	 0.280314
H	 5.7502257029	 1.7509667764	 0.7719203551	 0.083414
H	 5.2304075089	 3.1638675535	-0.1516126812	 0.112151
H	 3.5368883169	 1.7673390183	-1.3511123775	 0.123084
H	 4.0514131062	 0.3460531763	-0.4477947597	 0.091214
H	 3.3670338703	 1.4550611626	 1.705893899	 0.112868
H	 2.8722295538	 2.8840372918	 0.8079668883	 0.11814
H	 1.2230188134	-0.2260624641	 2.188250349	 0.103422
H	-1.1592948578	-0.5590280738	 0.8663244722	 0.108812
H	-0.9737152807	 1.1366088289	-1.2871050429	 0.129986
48.6619	76.5605	89.8592	133.0176	237.2241	300.9755	318.5489	335.2146	467.2339	615.161	663.5472	733.9622	746.0654	754.8556	803.2656	844.5295	852.2432	902.4537	948.4186	1021.1033	1029.2573	1039.6401	1065.6197	1084.1526	1116.3233	1153.2539	1184.3999	1238.2915	1242.531	1270.6039	1303.7832	1319.3498	1368.6259	1397.5424	1418.4765	1424.993	1472.7114	1493.2821	1515.7225	1543.1547	1638.3416	2962.859	3011.1103	3022.0439	3060.869	3067.627	3092.9525	3249.3363	3260.9481	3285.5447	3815.1072
OCCCC1=CC=CO1	OCCCc1ccco1	
InChI=1S/C7H10O2/c8-5-1-3-7-4-2-6-9-7/h2,4,6,8H,1,3,5H2	InChI=1S/C7H10O2/c8-5-1-3-7-4-2-6-9-7/h2,4,6,8H,1,3,5H2
