19
gdb 28	3.1422024	1.1243135	0.8653636	1.498	80.77	-0.20284	0.01895	0.22179	1356.6125	0.155828	-422.593233	-422.583534	-422.58259	-422.627938	34.656	
C	 4.1708305442	 0.3128118743	 3.0485926241	-0.490625
C	 2.8038427796	 0.2345698573	 2.4705184908	 0.358364
C	 2.3188688298	-0.0880560995	 1.2435389623	-0.385784
C	 0.8857320581	 0.0192599226	 1.3144433592	 0.135963
C	-0.086053927	-0.2362107525	 0.1968860135	-0.173139
O	-1.2501617643	-0.9539494347	 0.5992445195	-0.407373
C	 0.6021186428	 0.4023244412	 2.5947007243	 0.259519
C	-0.6618761344	 0.7001531532	 3.3195217887	-0.505112
O	 1.7634261183	 0.5315503991	 3.3045912343	-0.213434
H	 4.292209694	-0.373909209	 3.8943963774	 0.135702
H	 4.9097622722	 0.051428577	 2.287860974	 0.133795
H	 4.3976243729	 1.3213111397	 3.4135263156	 0.136612
H	 2.9031460444	-0.3733053524	 0.3812615023	 0.103528
H	-0.4664819569	 0.7025009162	-0.2226724723	 0.119893
H	 0.4359303914	-0.7575025996	-0.6204713192	 0.094268
H	-0.9474623153	-1.7371527078	 1.0713948006	 0.279826
H	-0.7184999546	 0.1455837433	 4.263063785	 0.130916
H	-0.7462078531	 1.7659653637	 3.5649460763	 0.131863
H	-1.508888492	 0.4147242777	 2.6941589936	 0.155219
60.0968	129.6675	150.7776	165.5204	193.0707	228.6502	259.0202	288.4567	363.6801	394.5183	453.9718	607.9728	640.2026	640.8144	718.2381	772.2398	799.4431	946.2541	974.3435	1016.0457	1034.3561	1047.7841	1061.5096	1069.3647	1158.0609	1164.1538	1214.9966	1245.2443	1285.8431	1357.9421	1401.5167	1415.069	1419.2236	1439.3657	1473.0431	1486.9976	1489.8464	1493.942	1508.2091	1614.5558	1667.504	2983.8853	3025.4996	3027.9385	3050.188	3074.3782	3076.5677	3128.0746	3146.9784	3242.6536	3806.5451
CC1=CC(CO)=C(C)O1	Cc1cc(CO)c(C)o1	
InChI=1S/C7H10O2/c1-5-3-7(4-8)6(2)9-5/h3,8H,4H2,1-2H3	InChI=1S/C7H10O2/c1-5-3-7(4-8)6(2)9-5/h3,8H,4H2,1-2H3
