19
gdb 304	2.804844	1.7814279	1.3766319	0.9003	73.6	-0.24705	0.07386	0.32091	979.0657	0.159871	-422.525394	-422.518248	-422.517304	-422.557015	28.397	
C	-0.7053842007	 0.2279235883	 2.9279889072	-0.304703
C	 0.1614203831	 1.4387657882	 2.6972436951	-0.029757
C	-0.3588673496	 2.5746553845	 1.8405366463	-0.11184
O	-1.1509764304	 2.1231367611	 0.748770984	-0.263713
C	-0.5376551938	 1.1919126588	-0.1071799832	 0.061174
C	 0.7838593452	 1.5568383364	-0.8238633538	-0.110474
O	 1.4624254447	 0.4334454864	-0.2291637877	-0.296616
C	 0.2877916219	 0.0385526612	 0.5279447268	 0.08716
C	 0.4966963958	 0.1373825619	 2.0139238633	-0.044082
H	-0.6513993138	-0.2719597087	 3.8884302551	 0.112197
H	-1.6896279118	 0.2265652574	 2.4716555844	 0.125248
H	 0.8071147011	 1.7590584899	 3.5096324936	 0.087682
H	-1.0194585126	 3.2302739983	 2.4173186265	 0.113452
H	 0.4827751157	 3.1878635602	 1.4830560479	 0.09837
H	-1.3282077448	 0.860802468	-0.7823170767	 0.096423
H	 0.7584315594	 1.4934186305	-1.9183228037	 0.102927
H	 1.2282924918	 2.5176943896	-0.5366339399	 0.105056
H	-0.0283293798	-0.9720096004	 0.2389574404	 0.076619
H	 1.3558626387	-0.4202517514	 2.3752702446	 0.094877
80.3906	203.9605	251.0999	340.2678	382.7475	425.1722	523.3156	560.4356	680.9095	763.2419	790.2983	796.8929	846.2963	883.0936	900.2639	953.9511	993.5543	1015.0239	1023.6086	1039.3848	1068.4715	1084.8339	1096.701	1115.0592	1120.6317	1137.3262	1153.6072	1194.2852	1210.7576	1256.4567	1284.8733	1294.9195	1343.0166	1357.6433	1371.3055	1386.6991	1421.5918	1422.7153	1495.3058	1503.7594	1526.5272	2988.1881	3015.1503	3021.8906	3058.2798	3069.0368	3100.7447	3135.586	3146.688	3156.2808	3222.6743
C1C2COC3COC3C12	C1[C@@H]2CO[C@H]3CO[C@H]3[C@H]12	
InChI=1S/C7H10O2/c1-4-2-8-6-3-9-7(6)5(1)4/h4-7H,1-3H2	InChI=1S/C7H10O2/c1-4-2-8-6-3-9-7(6)5(1)4/h4-7H,1-3H2/t4-,5-,6+,7+/m1/s1
