19
gdb 23	3.042786	1.1801622	0.9075671	1.0168	80.04	-0.1956	0.03024	0.22583999999999999	1329.3759	0.155585	-422.588546	-422.578757	-422.577812	-422.623551	34.986	
C	 1.4017165845	-0.8850567056	 0.0396006513	-0.365039
C	 0.6591057116	 0.4611947186	-0.0320154105	-0.30628
C	 1.5547110568	 1.6323308472	-0.2352626526	 0.242193
C	 1.7100035934	 2.5432542485	-1.2387360164	 0.103528
O	 1.0428564393	 2.6672069481	-2.4217151983	-0.442658
C	 2.7621345269	 3.4465697481	-0.8610025571	 0.191316
C	 3.2681863406	 4.6047384322	-1.6590871205	-0.497875
C	 3.1695915869	 3.0056558952	 0.357958578	-0.113209
O	 2.4611642436	 1.9177121786	 0.7572874694	-0.193302
H	 2.1293054596	-0.8756213725	 0.8556048342	 0.134508
H	 0.702286872	-1.7085256171	 0.2142487687	 0.110494
H	 1.9436930674	-1.0833548499	-0.8900686993	 0.118964
H	-0.0702086696	 0.436938205	-0.8525002245	 0.08812
H	 0.0699903094	 0.5976772227	 0.8850430212	 0.119879
H	 0.3755773401	 1.9761797574	-2.4818781867	 0.294948
H	 4.071945075	 5.1250317081	-1.1311644133	 0.120476
H	 3.6555743255	 4.2810809209	-2.6315905763	 0.133108
H	 2.4711781694	 5.328917249	-1.8612897853	 0.133287
H	 3.9265825777	 3.3523316555	 1.042886118	 0.127542
46.853	103.8166	127.6247	190.7053	226.6677	234.6712	254.1484	284.2062	347.0242	385.3989	510.5659	560.0104	631.8928	694.5863	726.0461	736.6738	737.768	780.3981	942.3372	984.0865	1013.0326	1056.8931	1066.1492	1086.0879	1179.6514	1186.9671	1257.7291	1269.95	1288.3783	1329.4105	1359.5001	1405.7147	1420.4602	1465.4213	1475.9913	1479.6856	1495.2942	1504.0601	1511.9609	1611.4987	1694.8495	3009.0004	3031.5603	3039.3314	3041.7764	3082.247	3110.66	3112.8	3121.6303	3268.0235	3824.534
CCC1=C(O)C(C)=CO1	CCc1c(O)c(C)co1	
InChI=1S/C7H10O2/c1-3-6-7(8)5(2)4-9-6/h4,8H,3H2,1-2H3	InChI=1S/C7H10O2/c1-3-6-7(8)5(2)4-9-6/h4,8H,3H2,1-2H3
