19
gdb 27	2.2624714	1.4377276	0.9155843	1.1564	81.4	-0.18941	0.03446	0.22386999999999999	1311.1305	0.155044	-422.578945	-422.569012	-422.568067	-422.614323	34.62	
C	 1.5078028083	-0.3307984911	 0.278748998	-0.252651
O	 0.2423616831	 0.2838850578	 0.0215004722	-0.269706
C	-0.2941339513	 0.9592528758	 1.0484925563	 0.323407
C	-0.8199251784	 2.2105547315	 1.1096860994	 0.149839
C	-0.8559415322	 3.2248631546	 0.0110016833	-0.506738
C	-1.3297368205	 2.324237343	 2.4547594276	-0.370859
C	-1.0666891676	 1.1575488697	 3.096051617	 0.366321
C	-1.3105964715	 0.6601742949	 4.4741696759	-0.487197
O	-0.4303292199	 0.2968691047	 2.2336747212	-0.225339
H	 1.4243894385	-1.0926527028	 1.0596951102	 0.137507
H	 1.8157201216	-0.798125829	-0.6578347499	 0.13434
H	 2.2498249262	 0.4187138842	 0.5797270466	 0.121472
H	-0.3710911002	 4.1617893954	 0.309257641	 0.122376
H	-0.3421011951	 2.8453019936	-0.8758764645	 0.130737
H	-1.8835880757	 3.4736579282	-0.2794919268	 0.125665
H	-1.8246701158	 3.182990276	 2.8837424649	 0.101165
H	-1.9372987824	-0.2395362864	 4.4776971856	 0.134431
H	-0.3749208181	 0.4068948738	 4.9870114989	 0.13189
H	-1.8193266491	 1.4312474762	 5.0574159431	 0.133339
45.7428	134.4164	135.6478	143.046	159.6391	195.945	237.2382	269.7526	312.3183	399.728	527.7228	590.2512	623.971	633.2191	701.6854	796.6759	801.5407	969.7517	997.8678	1014.3389	1035.3375	1064.1464	1066.5872	1144.8917	1175.121	1180.1409	1206.3064	1279.7637	1285.0736	1397.4292	1415.7121	1426.1758	1471.3437	1477.742	1486.005	1487.8318	1496.6173	1498.8374	1504.9873	1634.6769	1705.5466	3021.6011	3023.4573	3024.8361	3070.5344	3070.7519	3096.9439	3116.7354	3125.2202	3141.6688	3242.2633
COC1=C(C)C=C(C)O1	COc1c(C)cc(C)o1	
InChI=1S/C7H10O2/c1-5-4-6(2)9-7(5)8-3/h4H,1-3H3	InChI=1S/C7H10O2/c1-5-4-6(2)9-7(5)8-3/h4H,1-3H3
