19
gdb 234	2.556019	2.1362262	1.529856	1.0197	73.27	-0.23793	0.07107	0.309	915.2086	0.160224	-422.53258	-422.525909	-422.524964	-422.563282	27.663	
C	 1.6698395884	-1.6666446239	-1.0338476358	-0.281126
C	 0.2126778764	-1.9817818004	-0.6460784212	 0.115074
O	-0.7277066034	-1.5233818869	-1.6442919585	-0.320143
C	-0.9759513273	-0.2849988658	-0.9189096213	 0.12641
C	-0.7112909804	 0.9636705706	-1.7448520988	-0.230199
C	 0.744986067	 1.0154977089	-2.206638998	-0.08365
O	 1.6572806939	 0.910111863	-1.1201181919	-0.259806
C	 1.5270397529	-0.2592194009	-0.3484028356	 0.112404
C	 0.0917424071	-0.6413147234	 0.1298568318	-0.129716
H	 2.4041190865	-2.29372405	-0.5199847373	 0.102253
H	 1.8755912166	-1.6859425438	-2.105766914	 0.115541
H	-0.042035664	-2.9700630652	-0.2567724442	 0.076209
H	-1.9991121256	-0.283685496	-0.5217592043	 0.072885
H	-1.3780033799	 0.9854892912	-2.6148724934	 0.107812
H	-0.9398247103	 1.841992647	-1.1280030364	 0.105536
H	 0.9226715364	 0.2178557776	-2.9408345309	 0.1057
H	 0.9698698997	 1.9712752724	-2.686864446	 0.1059
H	 2.2298864571	-0.1312093279	 0.4773317457	 0.087774
H	-0.1501151413	-0.5299156164	 1.1852787501	 0.07114
157.8834	252.9125	323.1695	380.2357	417.7574	474.2652	537.582	636.2262	669.8541	746.7337	778.6938	831.8635	870.327	893.9231	911.8203	937.528	965.3888	976.8803	993.4177	1030.1801	1055.3982	1081.5393	1106.168	1123.1691	1160.0398	1176.426	1206.6269	1228.3803	1247.0814	1268.8025	1283.1065	1304.2811	1311.2779	1338.7006	1361.6282	1378.751	1403.3117	1419.2549	1456.7748	1458.5333	1505.2985	3010.6361	3016.0771	3032.5424	3060.1559	3076.1306	3082.1567	3085.6841	3094.9481	3125.6507	3127.0616
C1C2OC3CCOC1C23	C1[C@@H]2O[C@@H]3CCO[C@H]1[C@H]23	
InChI=1S/C7H10O2/c1-2-8-5-3-6-7(5)4(1)9-6/h4-7H,1-3H2	InChI=1S/C7H10O2/c1-2-8-5-3-6-7(5)4(1)9-6/h4-7H,1-3H2/t4-,5-,6+,7-/m1/s1
