19
gdb 206	2.3824142	2.2980126	1.8154107	1.5716	72.28	-0.24811	0.07611	0.32422	866.1346	0.1613	-422.56964	-422.563274	-422.56233	-422.599999	26.858	
C	 1.4637730113	 0.1408803444	-0.1488537036	-0.259734
C	 1.2170934819	 1.6497262203	 0.1561682503	-0.059841
C	 1.5127209535	 2.1051757887	 1.5907649159	-0.211907
C	 0.74470067	 1.2747168714	 2.6467444388	-0.239
C	-0.5916136427	 0.7639351353	 2.0768030715	 0.18442
O	-0.4238782345	-0.4622716256	 1.3687872416	-0.271981
C	-0.049998849	-0.1303104557	 0.0385778379	 0.076395
C	-0.3225210481	 1.4021432657	-0.0199293458	 0.080036
O	-1.0978138054	 1.6876049198	 1.1285331375	-0.251842
H	 1.7828771102	-0.0285178878	-1.1811590664	 0.101349
H	 2.128898742	-0.409231874	 0.5212419599	 0.104622
H	 1.663200234	 2.3429734567	-0.5610157361	 0.068672
H	 2.589524415	 2.0743770953	 1.7868030646	 0.098383
H	 1.2057864977	 3.1527526361	 1.6777984268	 0.110254
H	 1.3193416495	 0.4059421425	 2.9818964115	 0.111968
H	 0.5510004504	 1.8917012504	 3.5300853801	 0.102397
H	-1.3474981357	 0.6005065807	 2.8487106426	 0.091449
H	-0.5470170266	-0.8224861478	-0.6434247338	 0.080506
H	-0.8046399936	 1.8301761835	-0.8976135532	 0.083856
169.3366	308.2617	322.2292	422.0791	453.218	529.5391	626.8323	667.7551	746.8527	779.1353	799.6836	836.4423	858.1476	881.6751	894.704	919.9209	950.0946	976.3285	987.4705	1041.833	1073.6965	1084.1524	1092.8141	1139.8962	1147.0989	1164.3302	1211.4315	1230.5844	1236.9187	1272.3646	1280.3486	1315.9446	1327.3431	1335.3965	1355.297	1371.5325	1379.8105	1393.8638	1470.9182	1478.9042	1495.1153	3039.5601	3051.3012	3056.5473	3074.2781	3075.7189	3089.2887	3093.723	3098.4763	3114.2106	3129.1171
C1C2CCC3OC1C2O3	C1[C@@H]2CC[C@@H]3O[C@H]1[C@H]2O3	
InChI=1S/C7H10O2/c1-2-6-8-5-3-4(1)7(5)9-6/h4-7H,1-3H2	InChI=1S/C7H10O2/c1-2-6-8-5-3-4(1)7(5)9-6/h4-7H,1-3H2/t4-,5+,6+,7-/m0/s1
