19
gdb 33	1.7822029	1.6447636	0.9500517	1.306	78.79	-0.21603	0.01206	0.22809	1272.6329	0.156849	-422.583033	-422.573667	-422.572722	-422.618156	33.513	
C	 0.792568813	-0.5829402637	-0.7103005319	-0.365789
C	 1.0635621769	 0.242363834	 0.5594241538	-0.313111
C	 1.7900334037	 1.52825936	 0.2846467516	 0.180498
C	 3.100777251	 1.8084383897	 0.5525186476	 0.211069
C	 4.204084812	 1.0369847664	 1.2031606483	-0.174732
O	 3.8409657179	 0.489706217	 2.4677110545	-0.405622
O	 3.4066051126	 3.0793352048	 0.1443606161	-0.17567
C	 2.2798114733	 3.6063297139	-0.3972162959	-0.023125
C	 1.2612539973	 2.7112019934	-0.3381119118	-0.268042
H	 0.2513906358	-1.503171827	-0.4686094861	 0.112291
H	 0.1923335937	-0.0176778818	-1.4305852061	 0.116556
H	 1.7288146377	-0.8590033901	-1.2054854937	 0.118746
H	 0.1073667978	 0.4642424697	 1.050380885	 0.102776
H	 1.6473577262	-0.3480381247	 1.2715298141	 0.125041
H	 4.4944804031	 0.1715720206	 0.5973472966	 0.12435
H	 5.0831231035	 1.6938416794	 1.2757514578	 0.111028
H	 3.4709997196	 1.2066421241	 2.9940129677	 0.282523
H	 2.3657223	 4.6137877929	-0.7702112936	 0.133051
H	 0.2511078048	 2.8654144313	-0.6866474038	 0.108164
49.8786	56.5941	154.0906	156.549	198.1657	253.7342	333.9098	347.6117	423.2636	427.2162	618.1546	654.0914	674.6473	740.7645	770.2718	794.402	831.515	910.1143	948.7423	971.3166	1040.942	1047.8094	1072.6962	1086.7314	1140.9926	1186.8445	1192.4501	1256.5876	1271.1629	1306.7703	1357.6892	1369.9858	1406.1215	1420.16	1449.1114	1491.5795	1496.1693	1501.5453	1509.3444	1534.9953	1651.0427	3004.5953	3025.6081	3034.5013	3063.1276	3084.102	3106.7688	3110.5608	3244.9275	3280.2433	3808.5951
CCC1=C(CO)OC=C1	CCc1c(CO)occ1	
InChI=1S/C7H10O2/c1-2-6-3-4-9-7(6)5-8/h3-4,8H,2,5H2,1H3	InChI=1S/C7H10O2/c1-2-6-3-4-9-7(6)5-8/h3-4,8H,2,5H2,1H3
