19
gdb 367	3.0104589	1.4784789	1.4783712	0.6698	74.46	-0.25419	0.07557	0.32976000000000005	992.9488	0.158825	-422.51797	-422.510682	-422.509738	-422.549398	29.102	
C	 0.4126398439	 1.2358315598	-0.0494181805	-0.305153
O	 0.0525806628	-0.1609398097	-0.0338747105	-0.307546
C	 1.4242802543	 0.1865301899	 0.0274642361	 0.520096
C	 2.3371873664	-0.312502991	 1.148811113	-0.138954
C	 2.8062883514	-1.4058646264	 0.1363454517	-0.236971
C	 2.4449449072	-0.3638632671	-0.9701117796	-0.138952
C	 3.5996776931	 0.6486668269	-1.0754047684	-0.074658
O	 4.2932881597	 0.7729392156	 0.1591529998	-0.25534
C	 3.4777858717	 0.7067590257	 1.3215864799	-0.074658
H	 0.2272997567	 1.7505194849	-0.9916442233	 0.115219
H	 0.1339863113	 1.7949945688	 0.8431810094	 0.115219
H	 1.885246106	-0.5975280958	 2.1010096196	 0.07944
H	 3.8444850458	-1.7366700604	 0.1971605671	 0.107594
H	 2.1287853692	-2.2607699378	 0.122613465	 0.115197
H	 2.0911779533	-0.6956786911	-1.9483345298	 0.079439
H	 4.3481961588	 0.3146261285	-1.801766302	 0.110057
H	 3.2134374723	 1.6251340053	-1.4113908895	 0.089956
H	 4.1479833669	 0.4100464516	 2.135381595	 0.110058
H	 3.0618750492	 1.6973689223	 1.5691046071	 0.089956
135.1919	218.8404	235.877	294.7725	371.0675	380.087	453.8209	548.6598	604.7339	679.6616	831.4116	841.52	844.5066	846.3943	893.2273	925.1257	942.4773	975.1972	1004.1733	1036.8758	1064.539	1077.7459	1115.1893	1116.9733	1141.7508	1157.0152	1165.077	1187.3614	1227.0089	1252.7114	1276.0413	1285.9575	1291.4316	1314.0971	1378.7121	1408.9095	1448.1857	1487.2227	1505.8975	1515.6827	1543.2733	2966.2446	2972.5038	3064.2572	3066.4271	3077.6697	3078.6789	3096.3474	3097.9386	3141.8552	3162.7947
C1OC11C2CC1COC2	C1O[C@@]21[C@H]1C[C@@H]2COC1	
InChI=1S/C7H10O2/c1-5-2-8-3-6(1)7(5)4-9-7/h5-6H,1-4H2	InChI=1S/C7H10O2/c1-5-2-8-3-6(1)7(5)4-9-7/h5-6H,1-4H2/t5-,6+,7-
