19
gdb 132	2.8854334	1.8267157	1.5810664	2.8241	72.39	-0.24704	0.07921	0.32625000000000004	921.125	0.160521	-422.559173	-422.552555	-422.55161	-422.589728	27.686	
C	 0.7989887026	-2.4100497412	-1.1952960213	-0.211472
C	-0.5150132079	-1.7053944538	-1.6101672332	-0.208874
C	-0.3816492607	-0.1799086747	-1.4633283204	 0.042025
O	 0.7208571967	 0.2508366738	-2.268009228	-0.258255
C	 1.8847390101	-0.141509177	-1.5331511772	 0.042025
C	 2.0603660421	-1.6617599574	-1.6895101597	-0.208874
C	 1.5208555968	 0.2158485435	-0.0938448481	 0.034323
O	 0.7714698173	 1.4270431026	 0.0216984349	-0.25175
C	 0.0578162918	 0.1910599809	-0.0487718526	 0.034324
H	 0.8339769522	-2.4893059096	-0.1031966008	 0.102897
H	 0.804771399	-3.4375092482	-1.5726442624	 0.099563
H	-0.7415945718	-1.910994415	-2.6618442006	 0.11024
H	-1.3551859838	-2.0877209318	-1.0181504211	 0.094856
H	-1.2701067922	 0.3532855429	-1.8121646791	 0.086643
H	 2.7314899732	 0.4210848646	-1.9354452708	 0.086642
H	 2.2286238006	-1.8606688187	-2.7533519873	 0.11024
H	 2.9478369225	-2.0148156664	-1.1507202922	 0.094856
H	 2.1621518421	-0.0481668169	 0.7421930812	 0.100296
H	-0.5215114212	-0.0936363975	 0.8248710084	 0.100296
234.2438	235.5583	314.2824	341.2884	440.1126	457.9098	520.1213	623.0499	749.5576	785.2686	825.9306	829.2891	870.2258	879.4684	887.7684	890.3831	928.8614	955.7037	989.3874	1005.1185	1048.5983	1076.689	1080.2309	1092.5362	1115.0541	1175.8939	1204.7092	1237.8747	1270.103	1279.3266	1313.2127	1314.442	1333.6886	1360.5962	1363.8621	1377.4796	1384.9151	1432.1516	1473.8883	1480.6051	1504.2089	3031.6547	3033.3395	3042.944	3067.9333	3075.7748	3079.2829	3081.203	3090.3487	3152.755	3165.5772
C1CC2OC(C1)C1OC21	C1C[C@@H]2O[C@H](C1)[C@H]1O[C@@H]21	
InChI=1S/C7H10O2/c1-2-4-6-7(9-6)5(3-1)8-4/h4-7H,1-3H2	InChI=1S/C7H10O2/c1-2-4-6-7(9-6)5(3-1)8-4/h4-7H,1-3H2/t4-,5+,6-,7+
