19
gdb 105	5.0402272	0.8611265	0.7922603	3.1456	75.83	-0.22897	0.08028	0.30925	1451.0478	0.156524	-422.478833	-422.470552	-422.469608	-422.512563	30.616	
C	 1.1598478341	-1.2353196596	 2.1391026801	-0.277692
C	 0.4162666814	-2.5159441785	 2.4442808861	 0.111746
C	 1.1113940215	-3.7524622419	 2.81989569	-0.183142
O	 0.5788678748	-3.5820081034	 1.5041839265	-0.232083
C	 0.4586688877	-0.3951146659	 1.0883952521	-0.036483
C	 1.3379423079	 0.4619641159	 0.1949304115	-0.156213
C	 0.4622567083	 1.2082725838	-0.8040980768	-0.095683
O	-0.2043937911	-0.0211258832	-1.2024661609	-0.289834
C	 0.6566249597	-0.7765215548	-0.3471511633	 0.111362
H	 1.2766139847	-0.655272323	 3.0643515614	 0.106961
H	 2.1691852507	-1.4952812182	 1.7978941981	 0.103004
H	-0.6124589161	-2.389625071	 2.7875750389	 0.094332
H	 2.198913036	-3.7554381225	 2.8871193265	 0.111671
H	 0.6080013021	-4.4959883698	 3.4361655987	 0.115565
H	-0.5231859056	-0.0141166785	 1.368317157	 0.086763
H	 2.3786652963	 0.6641591837	 0.4115649485	 0.096364
H	-0.2384608318	 1.9558216752	-0.4124267167	 0.102897
H	 1.0202045556	 1.6305386296	-1.6477700399	 0.10913
H	 1.0160308138	-1.7384866079	-0.6917762577	 0.121336
69.4443	73.6419	124.8582	239.8396	298.0577	327.2618	361.7176	444.4313	543.9883	756.2334	782.2993	787.7132	857.9596	865.1011	927.3324	947.4385	957.7535	978.9435	994.281	1004.7006	1036.7763	1066.0861	1086.5827	1096.3524	1111.7424	1135.0771	1157.5993	1159.2371	1168.9318	1203.1721	1248.0971	1249.6343	1280.835	1293.9994	1336.24	1347.0585	1429.175	1451.1385	1469.0634	1516.3913	1529.7241	3018.2122	3019.2844	3060.8072	3067.3801	3081.0562	3094.0155	3109.5194	3167.3099	3189.2092	3201.522
C(C1CO1)C1C2COC12	C([C@@H]1CO1)[C@H]1[C@@H]2CO[C@H]12	
InChI=1S/C7H10O2/c1(4-2-8-4)5-6-3-9-7(5)6/h4-7H,1-3H2	InChI=1S/C7H10O2/c1(4-2-8-4)5-6-3-9-7(5)6/h4-7H,1-3H2/t4-,5+,6+,7-/m1/s1
