19
gdb 59	6.4282073	0.7954898	0.7173909	0.8405	80.87	-0.1881	0.04385	0.23195	1614.2933	0.155548	-422.575786	-422.566177	-422.565233	-422.611722	33.865	
C	 0.2261191654	-0.7635338474	-0.033427807	-0.389015
C	 0.6165384829	 0.6962490554	 0.0958921409	-0.050829
O	 2.038910241	 0.7757052989	-0.0770425783	-0.279018
C	 2.6071651765	 1.9823052704	-0.0023156864	 0.479736
C	 3.9122486266	 2.3463590765	-0.1229145468	-0.440126
C	 3.9336023692	 3.7780823078	 0.0477425716	 0.281041
C	 5.1366791621	 4.6672454426	 0.0036332829	-0.49736
C	 2.6468070951	 4.1530899945	 0.2553875696	-0.136414
O	 1.8136244036	 3.0527109591	 0.2274393845	-0.194794
H	 0.7263021476	-1.3673365227	 0.7286233652	 0.132128
H	-0.8552805707	-0.8710941576	 0.0926962058	 0.121365
H	 0.5013050181	-1.1525398427	-1.0175123488	 0.132127
H	 0.1210779794	 1.3127963808	-0.6633086544	 0.115919
H	 0.3449243134	 1.098550361	 1.0789787236	 0.115813
H	 4.7445761147	 1.6877111803	-0.3076248202	 0.104161
H	 5.8672760351	 4.3896986655	 0.7720266749	 0.128688
H	 5.6476671378	 4.6007302103	-0.9636855002	 0.128697
H	 4.8615035455	 5.7131838983	 0.1656080007	 0.121968
H	 2.1608193065	 5.0973179291	 0.4311164725	 0.125912
20.5778	62.484	141.1857	142.1519	191.432	250.5773	293.4952	343.9699	354.5662	479.234	617.5321	634.2313	643.2471	692.6367	752.849	756.2623	816.0447	902.2975	977.664	989.411	1016.0445	1063.7001	1063.897	1120.8429	1137.7951	1181.4563	1193.567	1243.6619	1293.8014	1326.6182	1393.6437	1412.6117	1419.5322	1427.9937	1481.4314	1484.2177	1497.4546	1499.1587	1522.1935	1617.235	1669.0047	3027.35	3028.021	3048.0183	3065.5698	3078.574	3109.3444	3122.8475	3127.8901	3267.8519	3286.0802
CCOC1=CC(C)=CO1	CCOc1cc(C)co1	
InChI=1S/C7H10O2/c1-3-8-7-4-6(2)5-9-7/h4-5H,3H2,1-2H3	InChI=1S/C7H10O2/c1-3-8-7-4-6(2)5-9-7/h4-5H,3H2,1-2H3
