19
gdb 371	2.6938728	1.7923969	1.5794233	2.5426	73.87	-0.24312	0.0868	0.32992	943.7448	0.159506	-422.547742	-422.540646	-422.539702	-422.578933	28.657	
C	 0.8466246694	 1.3362677365	-0.056404933	-0.355713
C	 1.5258794598	-0.0236108048	-0.0600276201	-0.355713
C	 0.0401857049	 0.0836549582	 0.0232905554	 0.418568
C	-0.8627344878	-0.3704036262	 1.1670451841	-0.192986
C	-2.1539156826	 0.3693134805	 0.762469032	-0.072763
O	-2.1440744386	 0.2928642578	-0.6818515563	-0.274473
C	-0.9552560996	-0.410811681	-1.0071672443	 0.136762
O	-1.1060249911	-1.7853266033	-0.6874024176	-0.274472
C	-1.0477304628	-1.8452884086	 0.7565542645	-0.072763
H	 0.9400451004	 1.9488761185	 0.8348766825	 0.113121
H	 0.8303295064	 1.9016472658	-0.982681401	 0.120519
H	 1.9661710326	-0.372282123	-0.9887241298	 0.12052
H	 2.0736563047	-0.3206666679	 0.8288480145	 0.11312
H	-0.5240154942	-0.2039451135	 2.1893907539	 0.077654
H	-3.0608373474	-0.1105998161	 1.1482586395	 0.102506
H	-2.1472716741	 1.4211123557	 1.0732920855	 0.101131
H	-0.7514237664	-0.3061547675	-2.0716442247	 0.091344
H	-1.9753425897	-2.2837798339	 1.1424535347	 0.102507
H	-0.2021510939	-2.4730536572	 1.0628915502	 0.101131
161.9487	200.8015	247.0151	254.8497	376.7995	458.0913	578.105	584.825	628.4689	770.1411	787.4808	853.4649	904.7204	909.8749	919.8438	924.9275	957.7972	962.8507	967.574	985.3763	1001.0218	1054.098	1060.9922	1079.5122	1082.4491	1112.9997	1169.7507	1181.6163	1191.9777	1248.863	1253.9747	1281.1717	1282.3637	1309.4497	1368.1327	1376.9323	1429.5161	1467.6262	1514.998	1516.6413	1533.3614	3019.712	3021.4419	3060.7315	3065.769	3123.3028	3123.4405	3126.5656	3145.2688	3200.1159	3213.8298
C1CC11C2COC1OC2	C1CC21[C@H]1CO[C@@H]2OC1	
InChI=1S/C7H10O2/c1-2-7(1)5-3-8-6(7)9-4-5/h5-6H,1-4H2	InChI=1S/C7H10O2/c1-2-7(1)5-3-8-6(7)9-4-5/h5-6H,1-4H2/t5-,6+
