19
gdb 8	3.1814682	1.0646905	0.9559594	1.8513	79.77	-0.21153	0.01646	0.22799	1327.4894	0.155718	-422.594906	-422.585354	-422.58441	-422.629688	34.488	
C	-2.0300881773	 1.1265142148	-1.3341437133	-0.398069
C	-2.0041997384	-0.3675751982	-0.9867027836	 0.010765
O	-3.0493245453	-0.6961555794	-0.0687263967	-0.429393
C	-0.6704971132	-0.8136487542	-0.4801082643	 0.363612
C	 0.254372576	-1.7158676042	-0.8969299424	-0.282074
C	 1.3239185586	-1.6755946903	 0.0585553869	-0.256521
C	 0.9746204358	-0.7559000262	 0.996976755	 0.347573
C	 1.6249987728	-0.2535922389	 2.2352206892	-0.492765
O	-0.2411726076	-0.2173568722	 0.6773236929	-0.23342
H	-1.7732038609	 1.7278891745	-0.4560834316	 0.119949
H	-1.3089917341	 1.3577322229	-2.1244207955	 0.118319
H	-3.0308060111	 1.4090147867	-1.6712388506	 0.121855
H	-2.2214614118	-0.9527687839	-1.8862030607	 0.099748
H	-2.8076052137	-0.3118946232	 0.7813839718	 0.283423
H	 0.1836342401	-2.3379103089	-1.7757377086	 0.109484
H	 2.231727341	-2.2587899167	 0.0495484493	 0.106882
H	 2.5860943536	-0.752852075	 2.3761541296	 0.136719
H	 1.8040935223	 0.8267904723	 2.1880320363	 0.137121
H	 1.0082197532	-0.4437502397	 3.1212937964	 0.136792
47.4148	112.8989	134.5131	154.331	233.4249	246.1552	289.1325	331.6068	365.3761	420.7845	511.7073	627.2095	635.3078	697.6878	725.869	800.5937	833.0381	894.7224	955.6248	977.4623	1001.7249	1033.7439	1042.354	1064.4834	1084.1738	1094.759	1212.2314	1234.652	1253.7513	1286.6349	1338.6415	1390.6415	1399.4072	1416.0368	1420.7374	1472.5413	1488.4273	1491.0356	1494.3866	1601.4247	1659.4277	3028.5038	3037.7313	3064.6698	3077.6002	3111.4572	3123.5324	3129.5934	3248.1583	3261.5366	3806.1309
CC(O)C1=CC=C(C)O1	C[C@H](O)c1ccc(C)o1	
InChI=1S/C7H10O2/c1-5-3-4-7(9-5)6(2)8/h3-4,6,8H,1-2H3	InChI=1S/C7H10O2/c1-5-3-4-7(9-5)6(2)8/h3-4,6,8H,1-2H3/t6-/m0/s1
