19
gdb 405	3.3371401	1.4920008	1.2542959	0.4582	75.01	-0.22815	0.08103	0.30918	1047.9903	0.157521	-422.506852	-422.49918	-422.498236	-422.538794	30.534	
C	 0.7482508578	 1.3187165062	-0.0407749722	-0.333722
C	 1.5431717966	 0.0255453854	 0.0098590992	-0.317701
C	 0.0382593819	 0.0127241935	 0.0742366125	 0.430174
C	-0.6805302168	-0.3848435618	 1.3354272502	-0.147876
O	-0.8043789518	-1.8006210375	 1.4393010504	-0.26083
C	-1.0817898562	-2.4633176427	 0.2408869584	 0.103249
C	-2.3127066692	-2.1960284673	-0.5967074925	-0.346089
C	-0.9408704646	-1.767857512	-1.0837971123	 0.040986
O	-0.6701049637	-0.3880081419	-1.0750270116	-0.295777
H	 0.7649222553	 1.9796705176	 0.8193608067	 0.11497
H	 0.6743804221	 1.8201779742	-0.999069662	 0.127588
H	 1.9981803852	-0.3104795857	-0.9146270802	 0.120221
H	 2.1049904813	-0.2071264374	 0.9080896372	 0.117172
H	-0.1318397671	-0.0639077617	 2.2248768636	 0.10968
H	-1.6740546179	 0.0896484214	 1.3523129853	 0.099883
H	-0.7433914247	-3.491896091	 0.3114099648	 0.105886
H	-2.8068024782	-3.0394585737	-1.0666890522	 0.112457
H	-2.9703558996	-1.3870544761	-0.2986819972	 0.125391
H	-0.4795860104	-2.2860051494	-1.9210717681	 0.094337
100.4038	147.8896	264.7537	297.4779	338.0939	386.2213	481.9676	510.7548	515.3256	666.6146	741.6091	767.8234	793.0648	808.4342	847.476	901.4942	928.099	960.3179	986.8629	1004.0627	1029.8123	1039.1168	1053.1186	1064.8808	1080.0424	1081.8025	1120.5256	1164.596	1184.1384	1185.8986	1246.5099	1252.6255	1302.1935	1348.4679	1366.5694	1394.9618	1427.7896	1452.8542	1473.7483	1496.5598	1503.3469	2986.3707	3091.9495	3125.3487	3134.0331	3135.646	3137.1317	3161.8927	3218.4054	3227.4195	3231.8915
C1CC11COC2CC2O1	C1CC21CO[C@H]1C[C@H]1O2	
InChI=1S/C7H10O2/c1-2-7(1)4-8-5-3-6(5)9-7/h5-6H,1-4H2	InChI=1S/C7H10O2/c1-2-7(1)4-8-5-3-6(5)9-7/h5-6H,1-4H2/t5-,6+/m0/s1
