19
gdb 277	3.4285291	1.3380905	1.2099848	2.1103	73.69	-0.24762	0.07234	0.31996	1078.336	0.158366	-422.52912	-422.521474	-422.52053	-422.561757	29.194	
C	-0.3628480358	 1.077299412	-0.0838920074	-0.128633
O	 0.1496131926	-0.256092267	 0.1187139638	-0.272903
C	 1.5080154097	 0.1952842385	-0.0272449607	-0.121453
C	 1.06036026	 1.6784120308	-0.1140106407	 0.28383
C	 1.4881419159	 2.5262488024	-1.3300255289	-0.309539
C	 2.7007948687	 3.3669939061	-0.860485833	-0.248781
C	 2.470728637	 3.5182285242	 0.6307506871	 0.046235
O	 1.1270114486	 3.8976129626	 0.9643999489	-0.268891
C	 1.4942446201	 2.51436288	 1.0713485513	-0.017444
H	-0.9149473171	 1.1652199722	-1.0293908006	 0.097312
H	-1.0106990035	 1.4030509707	 0.7386201734	 0.10854
H	 2.1289677303	-0.0787916371	 0.8359612265	 0.098512
H	 1.9791068772	-0.194562055	-0.9400647614	 0.095273
H	 1.7121971876	 1.9106360177	-2.2050066533	 0.102432
H	 0.6648138831	 3.1927842747	-1.6002866512	 0.122188
H	 3.6468484283	 2.8351810502	-1.0202566887	 0.105875
H	 2.7727050197	 4.3275245692	-1.3793329848	 0.11299
H	 3.2421926292	 3.9175291932	 1.2842231425	 0.095603
H	 1.4703493286	 2.0988497445	 2.0765515771	 0.098855
59.1497	111.8008	208.2831	305.3121	345.9335	368.8818	440.6577	513.8429	675.2348	741.0956	827.7354	839.9432	853.1601	873.1758	909.5349	936.1356	964.0144	982.8469	991.6306	1002.2603	1036.8395	1042.5743	1098.1313	1132.4705	1153.5958	1159.232	1163.3418	1211.2285	1223.7514	1263.1065	1277.0607	1307.5161	1318.1953	1325.5369	1367.1823	1381.9259	1434.6577	1478.8608	1490.506	1511.7118	1536.2214	2993.6351	3007.7466	3036.7199	3038.7966	3054.8406	3063.9045	3086.6477	3109.21	3136.267	3152.4733
C1OCC11CCC2OC12	C1OCC21CC[C@H]1O[C@@H]21	
InChI=1S/C7H10O2/c1-2-7(3-8-4-7)6-5(1)9-6/h5-6H,1-4H2	InChI=1S/C7H10O2/c1-2-7(3-8-4-7)6-5(1)9-6/h5-6H,1-4H2/t5-,6-/m1/s1
