19
gdb 237	3.0717631	1.813682	1.5686679	0.8376	73.11	-0.24349	0.08132	0.32481000000000004	910.3286	0.161223	-422.544337	-422.537957	-422.537013	-422.574706	26.871	
C	 1.9316566531	 0.3859415165	 1.5061915083	-0.224774
C	 1.784751174	-0.0143463607	 0.0249505733	 0.053021
O	 1.5280840322	 1.2932359598	-0.5842666927	-0.300601
C	 0.2499015804	 1.1830379068	 0.0961444001	 0.062742
C	 0.2707481544	-0.3369067222	-0.1706493788	-0.016613
C	-0.5543315565	-1.2369942581	 0.7398782189	-0.124334
O	-0.4298428116	-0.9355514413	 2.12042449	-0.24241
C	-0.4641983584	 0.4538281595	 2.4056476457	-0.09913
C	 0.6071269921	 1.2085057034	 1.6075462569	-0.045018
H	 1.9639366769	-0.4600474946	 2.1942152122	 0.113575
H	 2.8213883056	 1.0043887215	 1.6379812211	 0.104402
H	 2.5815304269	-0.5809928066	-0.456697653	 0.077731
H	-0.5231848534	 1.8579147149	-0.2727488373	 0.076434
H	 0.0693539063	-0.5514834059	-1.2223575393	 0.086811
H	-1.6107635643	-1.1531515198	 0.4289003629	 0.092713
H	-0.2653210834	-2.2881829247	 0.6339524768	 0.112419
H	-1.4646687327	 0.8707061567	 2.1934800933	 0.086791
H	-0.2910446724	 0.5375418289	 3.4825842939	 0.112305
H	 0.7445303311	 2.2208407158	 1.9933865376	 0.073936
219.9553	266.5446	347.1094	361.9785	436.3611	513.7703	584.175	710.0165	730.11	806.6784	815.291	825.7667	870.4385	884.5223	902.8448	943.1144	963.8814	990.4166	1010.7416	1037.7031	1063.7531	1081.9795	1093.4606	1131.5106	1161.4612	1175.884	1205.9441	1226.685	1260.7552	1273.3948	1287.5712	1296.1516	1314.2439	1329.6336	1340.4767	1366.9892	1391.1412	1422.0241	1480.2387	1493.8906	1504.3711	2949.6583	2955.1343	3066.4848	3077.3777	3079.9763	3091.2575	3095.7817	3116.6165	3125.1176	3136.8966
C1C2OC3C2COCC13	C1[C@@H]2O[C@H]3[C@@H]2COC[C@@H]13	
InChI=1S/C7H10O2/c1-4-2-8-3-5-6(1)9-7(4)5/h4-7H,1-3H2	InChI=1S/C7H10O2/c1-4-2-8-3-5-6(1)9-7(4)5/h4-7H,1-3H2/t4-,5-,6+,7-/m1/s1
