19
gdb 201	2.6192246	2.0640148	1.6085667	1.608	73.84	-0.23287	0.08205	0.31492	902.7819	0.159928	-422.520769	-422.513971	-422.513026	-422.551483	28.23	
C	-0.2423043196	-0.1457912268	-0.0930323219	-0.405692
C	 1.1925777928	-0.099903422	-0.5653048801	 0.106862
O	 1.7627596962	 0.8143107542	-1.4780703246	-0.278126
C	 2.1671946629	 1.912038814	-0.6293561461	 0.085632
C	 0.9180566511	 2.1221134292	 0.2228407515	-0.273639
C	 0.7910706524	 0.6561730291	 0.6713851726	 0.240205
C	 1.7240582407	 0.3939341826	 1.8243306393	-0.160874
O	 3.0647811203	 0.5513940713	 1.3215574719	-0.270993
C	 3.3204235415	 1.570299898	 0.3487993983	-0.075371
H	-1.0172937593	 0.4292497797	-0.5897971662	 0.120879
H	-0.5713873134	-1.1113137288	 0.2820121092	 0.117495
H	 1.7665404281	-1.0145622842	-0.4549365588	 0.102904
H	 2.4734348285	 2.7358189377	-1.2809747585	 0.079048
H	 1.0563263854	 2.8058321748	 1.0645688902	 0.100961
H	 0.0749031674	 2.4655606958	-0.3804548267	 0.102834
H	 1.5472816839	 1.0772974666	 2.6685410285	 0.091513
H	 1.6734442812	-0.6332830983	 2.1982960611	 0.109002
H	 3.5893446969	 2.5153282665	 0.8507284851	 0.090741
H	 4.1980668431	 1.2228236005	-0.2051053547	 0.116619
177.1307	242.2014	334.9148	348.6146	400.5046	460.536	487.841	605.2582	643.898	764.0324	780.2938	820.1042	840.6582	870.4647	915.5982	939.3082	946.73	970.8637	987.3904	1016.7228	1032.7851	1049.9866	1075.2294	1084.2943	1106.5277	1141.8126	1171.4253	1215.7758	1255.4449	1276.3388	1287.1799	1314.7035	1329.3715	1342.6697	1371.4472	1398.2329	1420.2812	1473.1391	1489.0689	1495.2533	1512.66	2962.9059	2989.6824	3061.3943	3076.029	3078.4019	3082.5508	3114.3143	3116.9705	3155.1587	3206.4951
C1C2OC3CC12COC3	C1[C@H]2O[C@H]3C[C@@]12COC3	
InChI=1S/C7H10O2/c1-5-3-8-4-7(1)2-6(7)9-5/h5-6H,1-4H2	InChI=1S/C7H10O2/c1-5-3-8-4-7(1)2-6(7)9-5/h5-6H,1-4H2/t5-,6+,7-/m0/s1
