19
gdb 151	3.304105	1.7003302	1.4032685	1.0392	74.91	-0.24517	0.09643	0.3416	962.738	0.159956	-422.499727	-422.492879	-422.491935	-422.530721	27.768	
C	-0.3796241834	-0.3294338654	-0.3909022315	-0.248036
C	-0.3652642704	 1.1391111683	 0.1111658848	-0.082539
C	 0.2322228232	 0.5924426374	 1.4530308379	 0.01032
C	 1.0959105622	 1.4483316479	 2.3961963463	-0.130517
O	 2.4796292908	 1.3291075743	 2.0814863088	-0.244639
C	 2.883512778	 2.0567919503	 0.9463777879	 0.004557
O	 1.8462511618	 2.2994183291	 0.0412326484	-0.268225
C	 1.0838545507	 1.2090766111	-0.4340073538	 0.152317
C	 0.9936904694	-0.1600178298	 0.3166270395	-0.086618
H	-1.0879653218	-1.0024771716	 0.0960077638	 0.098785
H	-0.3624728651	-0.4809400337	-1.4736141678	 0.09333
H	-1.143095838	 1.8938933568	-0.0106482664	 0.073201
H	-0.4709047274	-0.0279786683	 2.0181550482	 0.065356
H	 0.7738656793	 2.4985892224	 2.4045504843	 0.103256
H	 1.0122360812	 1.0652340809	 3.4169386862	 0.106972
H	 3.2415925328	 3.0589221095	 1.2238861708	 0.100056
H	 3.7082861663	 1.4805859438	 0.500758542	 0.09631
H	 1.2015317289	 1.146272267	-1.5212632438	 0.074398
H	 1.7764731413	-0.9083922001	 0.4326319246	 0.081715
141.5582	224.0443	277.0011	337.5676	381.3009	465.1553	512.7231	657.24	695.249	762.173	808.4743	844.0092	895.6156	903.5818	913.2083	956.5786	986.4303	1019.6793	1030.1234	1042.1232	1074.6809	1086.5187	1099.9779	1120.0727	1148.0488	1164.5175	1175.3136	1191.2939	1216.2965	1231.7358	1244.7014	1269.1819	1285.0667	1311.4391	1367.0533	1390.3227	1416.6905	1449.7977	1492.0352	1518.7679	1529.1799	2982.9812	3012.2574	3021.6394	3045.8647	3048.8027	3058.9441	3089.1394	3107.9261	3123.586	3125.3329
C1C2C3COCOC2C13	C1[C@H]2[C@@H]3COCO[C@H]2[C@H]13	
InChI=1S/C7H10O2/c1-4-6-2-8-3-9-7(4)5(1)6/h4-7H,1-3H2	InChI=1S/C7H10O2/c1-4-6-2-8-3-9-7(4)5(1)6/h4-7H,1-3H2/t4-,5+,6-,7+
