19
gdb 197	2.7096888	2.0394918	1.6038064	1.9219	73.85	-0.2481	0.07985	0.32794999999999996	904.34	0.160043	-422.542199	-422.535462	-422.534518	-422.572797	28.254	
C	 0.8096310422	 1.4605181484	-0.3485335245	-0.389608
C	 1.226390395	 0.0078152574	-0.5612378931	-0.081605
C	 0.4534600825	-1.0644965789	-1.3299415199	-0.270307
C	-0.7001489196	-1.3491019369	-0.3277145955	 0.191328
O	-0.9971264761	-0.0496802625	 0.1439930557	-0.280226
C	 0.2876935553	 0.4021882681	 0.5630146554	 0.410979
C	 0.5457131422	-0.1467875718	 1.9385536293	-0.309148
C	 0.6008117703	-1.6837409966	 1.6995077631	-0.056544
O	-0.3702535802	-2.1788019831	 0.7675891988	-0.2724
H	 1.5969858026	 2.1269677981	-0.0097077667	 0.115845
H	 0.0723265557	 1.9170426854	-1.0006114428	 0.125137
H	 2.2580723889	-0.2102351201	-0.308021164	 0.092412
H	 0.0323179706	-0.7281948104	-2.2831823559	 0.108271
H	 1.0699890349	-1.946453207	-1.5216073449	 0.108815
H	-1.5963965774	-1.7913658051	-0.7691566075	 0.086507
H	 1.4964337056	 0.1838118156	 2.3686806327	 0.101677
H	-0.2618280706	 0.1274598499	 2.6238411238	 0.115146
H	 1.6098769632	-1.9358467095	 1.3424032084	 0.094914
H	 0.4245710451	-2.242194281	 2.6233292674	 0.108809
200.8508	246.2814	340.7354	354.7309	410.6977	456.8135	509.8328	624.6226	647.8886	752.8856	785.452	813.8693	835.4863	860.705	889.6468	902.8265	918.7278	955.4382	978.3863	1003.2728	1021.2213	1078.6298	1086.1114	1099.9239	1109.9385	1128.4356	1179.8555	1208.7718	1241.413	1268.5001	1281.0951	1299.8365	1334.1516	1341.8287	1377.9534	1398.8286	1421.0178	1471.3039	1473.6939	1483.24	1509.7306	2995.6537	3049.1382	3049.5511	3081.886	3097.849	3101.4563	3104.9907	3124.1405	3166.5265	3215.9377
C1C2CC3OC12CCO3	C1[C@@H]2C[C@@H]3O[C@]12CCO3	
InChI=1S/C7H10O2/c1-2-8-6-3-5-4-7(1,5)9-6/h5-6H,1-4H2	InChI=1S/C7H10O2/c1-2-8-6-3-5-4-7(1,5)9-6/h5-6H,1-4H2/t5-,6-,7+/m0/s1
