19
gdb 375	4.7602565	0.9713157	0.9445168	1.0515	75.33	-0.24783	0.06185	0.30968	1280.5628	0.156186	-422.4947	-422.486461	-422.485517	-422.528396	30.779	
C	-2.2074112803	 4.18963975	-0.1099585315	-0.267374
O	-3.2533686847	 3.2047289901	-0.1162353279	-0.270666
C	-1.9151128275	 2.7560531205	-0.0834455137	 0.470519
C	-1.2491237302	 1.8880274278	-1.153135472	-0.391871
C	-0.3455419018	 1.3037616322	-0.0315695872	 0.300941
C	 1.1645044058	 1.6230213865	-0.0065507424	-0.123085
O	 1.5075800229	 0.2240292554	 0.0203493666	-0.273159
C	 0.1183307021	-0.1619989328	-0.0012424172	-0.139262
C	-1.2921317387	 1.9197487006	 1.0362583477	-0.391878
H	-2.0912006424	 4.7508202955	-1.0365779775	 0.116615
H	-2.1273551542	 4.7774867238	 0.8038680679	 0.116615
H	-1.9441916742	 1.1414930739	-1.5518064233	 0.116874
H	-0.7523178917	 2.3915770939	-1.9868021512	 0.109282
H	 1.5581120707	 2.1256423697	-0.9003237207	 0.099218
H	 1.5230275574	 2.1514048668	 0.8871270419	 0.099215
H	-0.1315199268	-0.7544351117	-0.8917163431	 0.100933
H	-0.1665006172	-0.7285070145	 0.8955811567	 0.10093
H	-2.0027415565	 1.1846788981	 1.428785639	 0.116874
H	-0.8281551926	 2.4475136543	 1.8738553581	 0.109281
48.8338	58.9008	223.995	286.2546	308.4985	331.8642	380.2836	417.1136	431.4262	641.1644	805.7162	832.0198	857.8741	867.2452	870.3988	897.6806	910.6643	963.1341	980.5102	992.8359	1041.0459	1069.98	1126.2911	1142.5346	1145.7192	1149.4181	1157.7337	1168.3047	1193.3937	1212.7149	1242.1701	1255.5678	1295.5101	1308.6143	1382.4395	1435.9636	1459.8556	1483.1345	1506.4635	1531.8	1538.0667	2992.3226	3004.5968	3039.7293	3040.9977	3044.7277	3049.954	3078.3907	3102.0355	3102.1126	3165.5114
C1OC11CC2(COC2)C1	C1OC21CC1(COC1)C2	
InChI=1S/C7H10O2/c1-6(3-8-4-6)2-7(1)5-9-7/h1-5H2	InChI=1S/C7H10O2/c1-6(3-8-4-6)2-7(1)5-9-7/h1-5H2
