19
gdb 93	5.9314503	0.6260145	0.5909886	1.1221	78.63	-0.24852	0.02748	0.27599999999999997	1849.8995	0.15451	-422.479471	-422.46964	-422.468696	-422.515984	33.793	
C	 6.5932203393	-1.0169385683	-0.8399510982	-0.412109
C	 5.4699502891	-1.2176742927	-0.4663226193	 0.279221
C	 4.1158059515	-1.4945879594	-0.0058978636	-0.201695
O	 3.3077609154	-0.3435163928	-0.1544170203	-0.250189
C	 1.9763899583	-0.5570419574	 0.2655098364	-0.063004
C	 1.2203023493	 0.7452872602	 0.0764932962	 0.132758
C	 0.8226064601	 1.1411436944	-1.3607003396	-0.279838
C	-0.6232269451	 1.0179422943	-0.838290507	-0.061835
O	-0.1629271864	 0.5987427203	 0.4670049072	-0.29616
H	 7.5853016636	-0.833019036	-1.1711887923	 0.201274
H	 3.6944769359	-2.3380643916	-0.5795686175	 0.119304
H	 4.1400324885	-1.8141009207	 1.0500842115	 0.121084
H	 1.4971611667	-1.3577576737	-0.3226953261	 0.088411
H	 1.9338590037	-0.8557845539	 1.3263718662	 0.098299
H	 1.720427615	 1.5396253907	 0.6454914098	 0.086248
H	 1.1311312223	 2.1369259377	-1.6795066723	 0.115582
H	 1.1094054625	 0.4158500512	-2.1243048987	 0.114383
H	-1.1868390644	 1.9574677978	-0.7861176683	 0.103965
H	-1.2515969254	 0.2552260199	-1.3130426341	 0.104302
38.2057	65.0965	79.7488	101.3265	135.1759	213.9765	308.3478	333.7516	377.7255	450.1548	568.5581	608.9168	677.9335	769.4258	802.7772	883.6778	939.1983	948.0624	973.0735	1011.0665	1030.1099	1031.5711	1058.5056	1124.3267	1147.9119	1157.9157	1177.5584	1211.0838	1249.5465	1256.2139	1257.9072	1276.1502	1344.4113	1374.1456	1396.3816	1446.144	1491.3781	1498.1032	1521.0996	1531.9645	2248.6499	2951.0129	2961.3146	2971.6948	2990.1095	3017.5693	3027.7561	3058.3429	3085.2075	3140.7486	3506.0146
C#CCOCC1CCO1	C#CCOC[C@H]1CCO1	
InChI=1S/C7H10O2/c1-2-4-8-6-7-3-5-9-7/h1,7H,3-6H2	InChI=1S/C7H10O2/c1-2-4-8-6-7-3-5-9-7/h1,7H,3-6H2/t7-/m1/s1
