19
gdb 247	3.3321349	1.5626387	1.2900203	2.1689	72.87	-0.24458	0.0786	0.32318	1008.978	0.160091	-422.560457	-422.553397	-422.552453	-422.592052	27.94	
C	-0.4970296915	 1.090279576	-0.7857619651	-0.075229
C	-0.0482381031	-0.1292840031	 0.0246291431	-0.237568
C	 1.4051946727	 0.2351011972	 0.3736597653	-0.040827
C	 1.5490710571	 1.1440609516	 1.6297971558	-0.266466
C	 2.4027069991	 2.3121397057	 1.1859176601	 0.061954
O	 3.6379892414	 1.9131436568	 0.5734854281	-0.263256
C	 2.5485090356	 2.3028366543	-0.2737493812	 0.009203
C	 1.8333873574	 1.0979771954	-0.8531445155	 0.09485
O	 0.6433965148	 1.4785533954	-1.546270346	-0.272001
H	-1.3125295078	 0.8802036394	-1.4839538557	 0.108814
H	-0.8220242338	 1.9087217031	-0.1234312651	 0.090008
H	-0.6689856894	-0.3096295434	 0.9066120092	 0.102294
H	-0.0785225262	-1.0255283185	-0.6030439172	 0.107897
H	 2.0343436595	-0.6495336136	 0.4712447615	 0.086853
H	 0.573308338	 1.5179451614	 1.9646070498	 0.100959
H	 1.99584472	 0.6085419185	 2.4729527023	 0.112802
H	 2.4526306938	 3.2241396635	 1.7761179681	 0.094306
H	 2.6976534898	 3.1948899732	-0.8761608387	 0.099449
H	 2.4749433323	 0.5561543969	-1.5575200187	 0.085958
88.6559	177.4622	242.0594	340.3788	380.9824	430.9287	600.6718	644.207	696.7617	782.4579	821.2148	831.8418	864.6379	871.363	914.9559	935.8605	947.5684	972.7453	1015.7125	1040.3534	1044.2122	1058.6719	1106.1263	1118.8532	1136.1929	1199.689	1205.9641	1228.422	1249.0197	1266.7001	1304.3149	1311.634	1319.622	1336.9723	1351.2705	1363.03	1392.1738	1443.2075	1483.4294	1490.2349	1526.8173	2973.3162	3032.4785	3040.8207	3051.8527	3080.9932	3081.6696	3102.1045	3111.7673	3141.4012	3159.0881
C1CC2CC3OC3C2O1	C1C[C@@H]2C[C@H]3O[C@H]3[C@@H]2O1	
InChI=1S/C7H10O2/c1-2-8-6-4(1)3-5-7(6)9-5/h4-7H,1-3H2	InChI=1S/C7H10O2/c1-2-8-6-4(1)3-5-7(6)9-5/h4-7H,1-3H2/t4-,5-,6-,7-/m1/s1
