19
gdb 331	2.4417155	1.999681	1.3832794	2.6274	74.63	-0.23533	0.08024	0.31557	977.2665	0.158622	-422.513942	-422.50651	-422.505566	-422.545494	29.525	
C	-1.4953429361	-1.4277371354	-1.9978140363	-0.320395
C	-0.360600975	-0.5302913931	-1.6012424283	 0.096254
O	-0.3436401772	 0.6986896106	-2.2445669336	-0.238165
C	 0.0178730117	 1.8431769897	-1.4884811226	-0.050856
C	-0.4951225777	 1.9134711061	-0.0398916618	-0.286247
C	-1.9561370097	 1.54922743	 0.1763980929	 0.054063
O	-2.7739440457	 1.2680873643	-0.9667095692	-0.244248
C	-2.4187355133	 0.1810598556	-0.1102893948	 0.037784
C	-1.4507360405	-0.8507317083	-0.5975780239	-0.074983
H	-2.2088910198	-0.978648671	-2.6795197552	 0.138787
H	-1.3169232156	-2.4879622339	-2.1359748923	 0.111234
H	 0.6200511595	-0.977349497	-1.4269352401	 0.081756
H	 1.1139127875	 1.9541913632	-1.463648069	 0.08823
H	-0.3856321925	 2.6836773431	-2.0609019949	 0.118392
H	 0.1139779126	 1.2669981672	 0.6041243925	 0.11386
H	-0.3139566373	 2.9387692813	 0.3031443013	 0.107831
H	-2.4726524526	 2.1160844724	 0.9518496712	 0.088875
H	-3.2582549998	-0.2142505356	 0.4644431585	 0.088996
H	-1.1643630684	-1.5430673591	 0.1915477556	 0.088832
145.6804	188.6767	221.2899	279.5506	314.69	418.3397	470.718	516.5686	632.2556	707.9919	758.6025	778.147	791.1528	834.2636	878.3556	901.9464	935.3979	977.1575	990.0608	1041.3357	1065.6472	1090.7728	1100.3621	1116.3741	1127.4031	1142.9167	1146.6119	1185.8614	1229.2154	1270.776	1279.9507	1299.821	1355.8986	1377.4573	1396.4861	1404.8833	1429.9497	1464.743	1477.7668	1488.66	1507.473	2974.7124	3030.3987	3060.5412	3075.2711	3084.6253	3086.0568	3103.3881	3129.1889	3139.5514	3233.6926
C1C2OCCC3OC3C12	C1[C@H]2OCC[C@H]3O[C@H]3[C@@H]12	
InChI=1S/C7H10O2/c1-2-8-6-3-4(6)7-5(1)9-7/h4-7H,1-3H2	InChI=1S/C7H10O2/c1-2-8-6-3-4(6)7-5(1)9-7/h4-7H,1-3H2/t4-,5+,6+,7-/m0/s1
