19
gdb 391	3.4150352	1.4166618	1.2265193	2.9418	74.81	-0.25065	0.06365	0.31429999999999997	1061.7964	0.158399	-422.527413	-422.519918	-422.518974	-422.559592	29.209	
C	 0.6239689249	 0.9584826255	-0.8086229917	-0.269735
O	-0.0400389287	 0.0728496731	 0.1053678966	-0.266746
C	 1.3547307307	 0.2701289646	 0.2554983062	 0.480092
C	 2.0208673902	 0.8367409799	 1.5103555576	-0.336198
C	 3.1809202125	-0.1903493695	 1.314088798	-0.028073
C	 3.2502524353	-1.3009749202	 2.3604516353	-0.093704
O	 2.0971779493	-2.0995289846	 2.1300098079	-0.248062
C	 1.9491380435	-2.2073768619	 0.7174824926	-0.091309
C	 2.3861521672	-0.8554175402	 0.1312022062	-0.161715
H	 0.6949676637	 0.6016138708	-1.8360233749	 0.112811
H	 0.3724173732	 2.0132075911	-0.7001406066	 0.114826
H	 2.2987507481	 1.8927629018	 1.4720321343	 0.103815
H	 1.4335732818	 0.6513126643	 2.4141872792	 0.124282
H	 4.1492308487	 0.2468812558	 1.0705093119	 0.074214
H	 4.1717124044	-1.8941645016	 2.232559718	 0.08574
H	 3.2066750349	-0.9437153153	 3.393593173	 0.110017
H	 2.5880416346	-3.0130487587	 0.3224607055	 0.086394
H	 0.9036244495	-2.4458672206	 0.5072075755	 0.127579
H	 2.8747528162	-0.9545625844	-0.8399078247	 0.075773
62.7013	186.7012	230.6271	282.8071	346.8469	380.1171	465.0532	530.5713	692.0397	706.5726	766.1187	838.9089	853.9233	863.0932	889.3395	925.9359	940.6203	963.9935	994.6886	1024.9109	1036.549	1097.8536	1113.4067	1125.4847	1152.6421	1158.1315	1182.2127	1200.7795	1207.304	1249.8657	1259.9892	1275.271	1292.1111	1326.0133	1351.1676	1395.3691	1434.3043	1468.7164	1500.7983	1514.0336	1534.2566	2961.082	2977.8633	3058.2971	3074.4325	3084.5051	3090.5509	3102.6025	3107.7828	3119.8316	3160.4937
C1OC11CC2COCC12	C1O[C@@]21C[C@H]1COC[C@@H]21	
InChI=1S/C7H10O2/c1-5-2-8-3-6(5)7(1)4-9-7/h5-6H,1-4H2	InChI=1S/C7H10O2/c1-5-2-8-3-6(5)7(1)4-9-7/h5-6H,1-4H2/t5-,6+,7+/m0/s1
