19
gdb 319	2.8702525	1.7671985	1.2891175	2.3666	73.72	-0.24482	0.07154	0.31636000000000003	1007.4146	0.159251	-422.555387	-422.548061	-422.547117	-422.587202	28.779	
C	 1.7514190282	-0.4218161413	 1.2883033121	-0.212243
C	 2.4085698227	 0.5787324385	 0.3053476273	-0.245267
C	 1.2490640657	 1.5264478391	-0.0483764513	 0.063008
O	 1.32501582	 2.2333038059	-1.2799184889	-0.283481
C	 0.5494975017	 1.5772559347	-2.2863303142	-0.106264
C	-0.3164646511	 0.5660909471	-1.570862566	-0.081528
O	-1.1525930014	 1.1192384241	-0.5372324634	-0.322033
C	 0.0960269774	 0.5468278287	-0.1666395184	 0.465845
C	 0.286206631	-0.6154716313	 0.7869267432	-0.339024
H	 2.2996381029	-1.3644366816	 1.3521908821	 0.105505
H	 1.74085315	 0.0072266644	 2.2956829306	 0.110484
H	 3.2747712839	 1.0905794005	 0.7307202115	 0.104622
H	 2.7397295583	 0.0657319411	-0.6053166146	 0.102534
H	 1.0978515474	 2.2700838419	 0.7444340489	 0.089523
H	-0.0247073668	 2.3392777773	-2.8256903616	 0.117648
H	 1.1958967278	 1.0559848383	-3.0096142813	 0.097046
H	-0.7161879456	-0.298618768	-2.0939287663	 0.102118
H	-0.4360075781	-0.5688461609	 1.6068326978	 0.120466
H	 0.1439997861	-1.5777888886	 0.2872334327	 0.111041
89.3346	174.5207	202.3147	320.9575	379.3469	434.2946	518.8425	543.917	636.4947	737.7557	755.0136	803.4063	855.9934	865.3424	904.7672	933.0325	945.1978	969.0026	1009.1512	1017.0918	1026.8791	1078.7748	1106.3235	1114.7984	1166.0195	1185.5969	1222.0055	1227.2336	1236.931	1279.0329	1303.3672	1307.8647	1334.6011	1338.2713	1363.5016	1388.6013	1477.1681	1487.0832	1491.8074	1508.478	1510.0915	2986.1714	3028.8367	3043.8125	3051.1848	3057.4038	3059.5028	3091.5892	3104.5308	3112.0909	3153.3588
C1CC2OCC3OC23C1	C1C[C@H]2OC[C@@H]3O[C@]23C1	
InChI=1S/C7H10O2/c1-2-5-7(3-1)6(9-7)4-8-5/h5-6H,1-4H2	InChI=1S/C7H10O2/c1-2-5-7(3-1)6(9-7)4-8-5/h5-6H,1-4H2/t5-,6+,7-/m1/s1
