19
gdb 180	3.7764413	1.3601886	1.1553663	2.4791	74.53	-0.24037	0.0774	0.31777	1082.7784	0.158263	-422.487674	-422.480284	-422.47934	-422.519967	28.933	
C	 1.1332729894	 0.4014693184	-1.2533280353	-0.235713
C	 1.7242722285	 1.0435871594	 0.0225218572	-0.009677
O	 0.3532391179	 1.0894668046	 0.5918717864	-0.320316
C	 0.5018099961	-0.2620839901	-0.0065575948	-0.011851
C	 1.8982541319	-0.3608732424	 0.6664223827	 0.373596
C	 2.9847678904	-1.3523943163	 0.2019568275	-0.340655
C	 3.3445598293	-2.0868665804	 1.5032616734	-0.083259
O	 3.1437512779	-1.1326071623	 2.5313048273	-0.245237
C	 1.9437683474	-0.4440197382	 2.2074708521	-0.155267
H	 0.4560887499	 1.0462395766	-1.814122429	 0.110293
H	 1.7871575158	-0.1930130103	-1.8944315874	 0.101442
H	 2.345623711	 1.9338621555	 0.1339130387	 0.094635
H	-0.3517365112	-0.9384091531	 0.0681209329	 0.092414
H	 2.6441417473	-2.0331262736	-0.5823154575	 0.10606
H	 3.8573687139	-0.8119167554	-0.1786532728	 0.113804
H	 2.687031547	-2.9612648721	 1.6477069308	 0.086703
H	 4.382170914	-2.4263860462	 1.5508303732	 0.109633
H	 1.0677239728	-0.9959011067	 2.585581868	 0.091411
H	 1.9661037606	 0.5308725227	 2.6965857466	 0.121984
47.1407	201.9811	228.9807	281.4956	356.2704	405.2194	530.5224	625.4921	647.2261	732.11	765.8193	794.9204	860.1276	879.0432	893.2201	919.9434	957.9477	973.6243	1010.5447	1017.9114	1035.8067	1079.7319	1107.1127	1123.3946	1145.172	1170.5065	1176.1838	1193.1919	1202.9358	1233.697	1237.8546	1271.9603	1273.5013	1305.8507	1322.4431	1362.1371	1403.3267	1483.0315	1489.1811	1503.4928	1520.7475	2957.7441	2971.2159	3050.8458	3072.5927	3094.4077	3100.7808	3104.0504	3109.2163	3114.3595	3152.6289
C1C2OC1C21CCOC1	C1[C@H]2O[C@@H]1[C@]12CCOC1	
InChI=1S/C7H10O2/c1-2-8-4-7(1)5-3-6(7)9-5/h5-6H,1-4H2	InChI=1S/C7H10O2/c1-2-8-4-7(1)5-3-6(7)9-5/h5-6H,1-4H2/t5-,6+,7-
