19
gdb 230	3.1205109	1.6904287	1.3733989	1.4255	73.78	-0.24029	0.06339	0.30368	984.0349	0.158634	-422.512608	-422.505336	-422.504392	-422.54451	29.022	
C	 1.049343089	-3.0832255064	-0.3524854358	-0.333019
C	 1.304676662	-1.7726177278	-1.0505564547	 0.065985
O	 2.2091519287	-0.8949965305	-0.4450057654	-0.25594
C	 1.6097328263	 0.2841598297	 0.0583645309	 0.100233
C	 0.8790492854	 1.2285069705	-0.9418616715	-0.254228
C	-0.4633267283	 0.9971970156	-0.1857668337	-0.254236
C	 0.2606262459	 0.0518796186	 0.8184304647	 0.100252
O	-0.1494436571	-1.3011178424	 0.8841176734	-0.255934
C	 0.0065772301	-1.9961659459	-0.3190268557	 0.065993
H	 0.8601786369	-3.9632618377	-0.9570710201	 0.112642
H	 1.5965794584	-3.2481771465	 0.568156719	 0.133062
H	 1.3110248627	-1.7489683408	-2.1386842254	 0.091706
H	 2.3877649231	 0.7683780697	 0.6522333374	 0.085326
H	 1.248917332	 2.2562890681	-0.9388847728	 0.103443
H	 0.8889753278	 0.8659085567	-1.9720104314	 0.107122
H	-0.9033127974	 1.8854659983	 0.2730732855	 0.10344
H	-1.236785424	 0.4993685595	-0.7745860816	 0.107122
H	 0.2564576236	 0.4016486712	 1.8528995035	 0.085326
H	-0.9128527453	-2.1319625097	-0.8854445265	 0.091707
61.3922	157.7608	276.3371	344.2855	419.2177	457.5767	528.4022	533.705	695.333	726.8603	757.7571	787.2182	804.2594	814.8855	886.9805	905.0487	943.4465	952.9892	996.8732	1043.1987	1049.6581	1077.5162	1084.9338	1123.2548	1129.1794	1130.5269	1167.7575	1186.4292	1212.7132	1231.8204	1247.8762	1257.693	1282.2277	1283.9764	1345.3581	1373.5779	1397.1746	1407.5355	1466.0825	1466.3734	1486.4475	3067.0693	3072.1575	3078.6215	3092.4225	3108.7157	3113.6829	3119.0794	3131.3094	3141.1497	3238.0553
C1C2OC3CCC3OC12	C1[C@@H]2O[C@H]3CC[C@H]3O[C@H]12	
InChI=1S/C7H10O2/c1-2-5-4(1)8-6-3-7(6)9-5/h4-7H,1-3H2	InChI=1S/C7H10O2/c1-2-5-4(1)8-6-3-7(6)9-5/h4-7H,1-3H2/t4-,5+,6-,7+
