19
gdb 45	2.8877451	1.2227594	0.919034	1.0033	79.51	-0.2113	0.02164	0.23293999999999998	1292.6157	0.155941	-422.591745	-422.582014	-422.58107	-422.626443	34.679	
C	 4.2205366757	 0.3190896445	 2.9163527176	-0.490773
C	 2.8174856755	 0.3126508036	 2.4242988222	 0.279092
C	 2.2313851797	-0.040344758	 1.2458166408	 0.065599
C	 2.8809855419	-0.5648542897	 0.0018514327	-0.513409
C	 0.8137841429	 0.1938820151	 1.420325462	 0.155165
C	-0.2689552584	-0.0735472847	 0.4242158067	-0.179789
O	-0.3512934826	-1.4511265293	 0.0551243215	-0.411594
C	 0.6671145685	 0.6621147817	 2.6866147689	-0.135905
O	 1.8680743335	 0.7473345364	 3.3126955422	-0.186812
H	 4.3305780638	-0.2899014919	 3.8209185467	 0.136653
H	 4.8905155612	-0.0811939285	 2.1526044703	 0.134643
H	 4.5566231905	 1.3330468766	 3.1630081283	 0.137423
H	 2.337162366	-1.4358711964	-0.3751068756	 0.145853
H	 2.8787082857	 0.1837076518	-0.8004472521	 0.126729
H	 3.9209591959	-0.8531665296	 0.1769126405	 0.118116
H	-1.2314810037	 0.29178368	 0.8138136097	 0.092098
H	-0.0795933076	 0.4577513069	-0.5151472718	 0.114442
H	-0.4020470914	-1.9570747373	 0.8731227448	 0.280184
H	-0.1896740172	 0.9751324989	 3.2619905647	 0.132285
89.7869	104.5625	120.3504	136.2176	202.3155	248.0897	271.1615	285.4393	357.8972	418.4891	459.8801	587.5057	632.3518	685.0823	693.4103	746.9728	782.8342	925.6906	970.6939	973.009	1038.5697	1058.8518	1069.19	1124.8394	1172.4525	1184.6561	1197.3618	1258.4295	1299.446	1356.5473	1405.4541	1418.9288	1427.6267	1433.9753	1472.5822	1481.1422	1490.0787	1501.2328	1507.7275	1604.1378	1679.205	2988.0621	3026.4639	3029.4188	3060.9526	3077.7353	3085.1196	3118.8302	3130.3058	3264.1742	3808.9849
CC1=C(C)C(CO)=CO1	Cc1c(C)c(CO)co1	
InChI=1S/C7H10O2/c1-5-6(2)9-4-7(5)3-8/h4,8H,3H2,1-2H3	InChI=1S/C7H10O2/c1-5-6(2)9-4-7(5)3-8/h4,8H,3H2,1-2H3
