19
gdb 356	3.9577216	1.1713843	1.1042552	3.2732	75.21	-0.24035	0.07365	0.314	1154.1689	0.157409	-422.465276	-422.457487	-422.456542	-422.49827	29.439	
C	-0.1942602805	 1.1334915664	 0.67526321	-0.083364
O	 0.1193666861	-0.2431368211	 0.3873797201	-0.26991
C	 1.3381137692	 0.1234927177	-0.2883264676	-0.083362
C	 1.1727885324	 1.6064104797	 0.1239794051	-0.202515
C	 1.1630083455	 2.6286414747	-0.9630041162	 0.4277
C	 0.6693546348	 4.1041687396	-0.9441931638	-0.263636
C	 0.9510518394	 3.6803252357	-2.4021442587	 0.054128
C	 2.2845689984	 3.0390266884	-1.9604621719	-0.263639
O	 0.2692121457	 2.392381617	-2.1359225299	-0.33938
H	-1.053517377	 1.4891928336	 0.0938864744	 0.114992
H	-0.3774522624	 1.3006523566	 1.7426734329	 0.099771
H	 2.2092021385	-0.4042291941	 0.116126673	 0.099772
H	 1.2746864542	-0.0453594198	-1.3701379002	 0.114976
H	 1.8703587397	 1.9190817856	 0.9055887687	 0.087331
H	-0.3841911828	 4.238500141	-0.6956049428	 0.10904
H	 1.3180134243	 4.8567815949	-0.4884224154	 0.095154
H	 0.7027470211	 4.190818394	-3.3318441354	 0.098744
H	 2.6496163542	 2.2378757827	-2.6044312197	 0.109042
H	 3.0800700391	 3.6948067574	-1.5970828426	 0.095157
72.3115	82.3714	155.9113	213.0638	366.6807	400.9846	517.0513	601.4752	605.5201	728.2466	801.735	818.9694	890.3811	891.033	908.5158	936.5022	941.6135	984.3616	992.0347	1017.6138	1041.8132	1043.4366	1084.5452	1104.8409	1109.012	1143.4822	1161.5222	1169.4612	1178.6066	1216.5879	1237.9017	1239.9755	1253.9525	1282.6404	1314.8899	1376.6267	1411.2157	1466.1718	1507.7018	1513.8373	1534.8375	3016.331	3026.5592	3057.6211	3061.4172	3066.0217	3068.185	3083.7048	3127.6073	3143.2874	3147.9428
C1OCC1C12CC(C1)O2	C1OCC1[C@@]12C[C@@H](C1)O2	
InChI=1S/C7H10O2/c1-6-2-7(1,9-6)5-3-8-4-5/h5-6H,1-4H2	InChI=1S/C7H10O2/c1-6-2-7(1,9-6)5-3-8-4-5/h5-6H,1-4H2/t6-,7+
