19
gdb 209	2.3509632	2.3119795	1.8171711	0.5085	72.24	-0.24583	0.08112	0.32694999999999996	866.066	0.161414	-422.57016	-422.563786	-422.562841	-422.600574	26.771	
C	 1.361407456	 0.1609903399	 1.3025291071	-0.236516
C	 1.9966538049	 1.4248426151	 0.7246936361	 0.086449
O	 2.4787541636	 1.2368641471	-0.6255115393	-0.317217
C	 1.2717388176	 1.8127659357	-1.1912101993	 0.086497
C	 0.3636438438	 0.772718686	-1.8325500505	-0.21396
C	 0.0059201755	-0.362013717	-0.8416655656	-0.221631
C	-0.025730526	 0.1514170979	 0.6182842261	 0.074338
O	-0.4021851089	 1.5412169929	 0.6288221514	-0.263431
C	 0.7643064672	 2.2203814354	 0.2196454961	 0.047227
H	 1.9594293442	-0.7299003623	 1.0976503879	 0.111624
H	 1.2384902903	 0.2658630762	 2.3855391374	 0.103364
H	 2.7456811862	 1.8988309397	 1.3635648356	 0.078048
H	 1.5147875804	 2.6289492302	-1.8804869359	 0.073128
H	-0.5491376841	 1.2898820421	-2.1498182021	 0.110354
H	 0.832259054	 0.3666547202	-2.7343639787	 0.10545
H	-0.9710365057	-0.7758222126	-1.1086236933	 0.100578
H	 0.7279108542	-1.1804689856	-0.9207357882	 0.108323
H	-0.773580531	-0.3850622511	 1.2058087594	 0.081558
H	 0.6599636879	 3.2819421602	 0.4388097861	 0.085817
153.3449	314.0919	325.3981	412.4536	467.239	514.7278	617.7311	663.2974	750.8065	791.0174	812.4063	854.1381	860.0314	881.1874	900.7493	937.7058	964.5516	983.725	1008.6258	1019.9839	1062.9437	1069.3647	1084.7253	1113.2878	1173.0606	1178.9188	1214.519	1226.4652	1246.9727	1280.0088	1299.8874	1325.7997	1331.4633	1341.5628	1360.4539	1365.4822	1382.3317	1394.0879	1464.2494	1471.5501	1497.0878	3035.8112	3047.9485	3052.1321	3053.5251	3078.8078	3081.8052	3091.0989	3098.1638	3117.2727	3128.544
C1C2OC3CCC1OC23	C1[C@H]2O[C@H]3CC[C@@H]1O[C@@H]23	
InChI=1S/C7H10O2/c1-2-5-7-6(9-5)3-4(1)8-7/h4-7H,1-3H2	InChI=1S/C7H10O2/c1-2-5-7-6(9-5)3-4(1)8-7/h4-7H,1-3H2/t4-,5-,6+,7+/m0/s1
