19
gdb 172	2.9319576	1.9308518	1.9061257	1.5948	72.38	-0.25168	0.08255	0.33423	853.2545	0.16192	-422.542931	-422.536966	-422.536022	-422.572804	26.171	
C	-0.2020215105	 1.423642635	-0.4065031844	-0.208224
C	-0.1092218662	-0.1011108071	-0.078127907	-0.056178
C	 1.433987339	 0.0898503712	-0.2133287571	-0.222488
C	 1.1592742484	 1.5078542438	 0.3519639711	-0.066638
C	 0.8420535921	 1.3569753589	 1.8851228056	 0.201426
O	 1.5153885682	 0.2322037794	 2.4628267593	-0.274188
C	 0.615169816	-0.8784792364	 2.2920123734	-0.103448
C	-0.5020981631	-0.2619929589	 1.431486991	 0.052168
O	-0.5270504368	 1.0473525472	 2.0285105427	-0.24538
H	-0.064741656	 1.5992812471	-1.4755580943	 0.094127
H	-1.0513897383	 1.9924987102	-0.0323126871	 0.109368
H	-0.6153573226	-0.831784874	-0.7124735506	 0.062992
H	 2.1193738404	-0.5563687727	 0.3317275157	 0.113573
H	 1.730021243	 0.1279914694	-1.2649086846	 0.092002
H	 1.8576716851	 2.321906191	 0.1494887069	 0.061447
H	 1.0780933822	 2.2478333117	 2.4696692183	 0.090011
H	 1.1365423294	-1.7157464586	 1.8186923423	 0.105814
H	 0.2321270464	-1.1940502446	 3.2690499019	 0.107288
H	-1.4826080269	-0.7198398025	 1.5651821871	 0.086327
260.1119	354.516	390.3317	498.6703	516.7377	541.6393	599.5681	733.8102	773.0319	798.3644	827.7335	844.5593	879.605	893.477	916.47	927.2859	956.4072	976.1539	988.9072	1003.3815	1032.4862	1051.0183	1078.9067	1095.4039	1120.5549	1138.4528	1167.7455	1203.0127	1239.8984	1251.3784	1258.7341	1275.0831	1306.9444	1320.9104	1331.3876	1336.0593	1362.6086	1379.4257	1486.797	1515.45	1529.8855	3035.1971	3068.3802	3075.5368	3084.1136	3086.1854	3092.0074	3108.3626	3118.1965	3146.7418	3149.9111
C1C2CC1C1OCC2O1	C1[C@H]2C[C@@H]1[C@@H]1OC[C@H]2O1	
InChI=1S/C7H10O2/c1-4-2-5(1)7-8-3-6(4)9-7/h4-7H,1-3H2	InChI=1S/C7H10O2/c1-4-2-5(1)7-8-3-6(4)9-7/h4-7H,1-3H2/t4-,5+,6-,7-/m1/s1
