19
gdb 228	2.7609731	2.1327408	1.9357341	0.237	72.27	-0.23515	0.09037	0.32552000000000003	838.0455	0.162001	-422.575739	-422.569773	-422.568829	-422.605584	26.169	
C	-0.9418151752	-1.4154842454	-0.8866139846	-0.216371
C	 0.5872941015	-1.2905889322	-0.970168496	 0.061344
O	 0.8667267066	-0.729353088	 0.3176839346	-0.281837
C	 0.0548901683	 0.470305095	 0.2753993967	 0.061384
C	 0.9818119614	 1.5701497257	-0.2584743007	-0.201689
C	 1.7230132183	 0.9433172064	-1.4728312164	-0.201689
C	 0.7803185193	-0.1344751021	-2.023790558	 0.061383
O	-0.5280376937	 0.4868539177	-2.070607906	-0.281834
C	-1.0504744533	 0.1141065027	-0.7900829702	 0.061344
H	-1.4465220142	-1.7855409263	-1.780285384	 0.105121
H	-1.2381326127	-1.9784176446	-0.0002608616	 0.105121
H	 1.1953702632	-2.1818438671	-1.1203492025	 0.080093
H	-0.3452115788	 0.6658110596	 1.2725146151	 0.077346
H	 0.4040586957	 2.4484167232	-0.5595408797	 0.106193
H	 1.6854452577	 1.8794018626	 0.5188124575	 0.100231
H	 1.9282133097	 1.6926309354	-2.2418127718	 0.10023
H	 2.6762516687	 0.5023980198	-1.168332483	 0.106194
H	 1.0418617723	-0.4913698256	-3.0221715022	 0.077346
H	-2.0246474448	 0.5789434232	-0.6432490574	 0.080093
271.6498	344.6438	371.7125	511.4553	516.0519	546.7526	644.05	675.9108	763.1656	795.8045	811.3791	852.6731	891.7874	897.5779	911.8326	922.4499	964.5816	968.8042	991.9974	1026.7808	1029.5474	1041.4426	1053.4976	1065.7133	1143.6891	1168.2566	1202.4365	1206.0695	1260.9204	1268.8793	1284.1351	1289.8506	1303.1854	1307.7286	1343.0665	1345.4867	1359.9625	1367.8429	1473.4274	1474.0176	1490.9279	3055.6942	3063.7059	3081.67	3087.2084	3088.7509	3098.0883	3113.7485	3131.0364	3136.2672	3146.2868
C1C2OC3CCC2OC13	C1[C@@H]2O[C@H]3CC[C@@H]2O[C@@H]13	
InChI=1S/C7H10O2/c1-2-5-7-3-6(9-5)4(1)8-7/h4-7H,1-3H2	InChI=1S/C7H10O2/c1-2-5-7-3-6(9-5)4(1)8-7/h4-7H,1-3H2/t4-,5-,6-,7-/m0/s1
