19
gdb 368	2.9453736	1.5081779	1.4946885	1.9106	74.32	-0.23471	0.07934	0.31405	992.1611	0.158692	-422.515275	-422.507916	-422.506972	-422.546771	29.368	
C	 0.2927213401	 1.1275756174	 0.0037225328	-0.298269
O	 0.0797285446	-0.2994167486	-0.0556853993	-0.30057
C	 1.4042773025	 0.1892500332	 0.0575257033	 0.502673
C	 2.3566505129	-0.2774617189	 1.1666946657	-0.126054
C	 2.9355787073	-1.2595900882	 0.0952134447	-0.27477
C	 2.4936756889	-0.1940880623	-0.9538312321	 0.02655
O	 3.4215241975	 0.8779576256	-1.0754045703	-0.273868
C	 4.1708573375	 1.1195087514	 0.1164275385	-0.065248
C	 3.3661986449	 0.862493348	 1.4107367694	-0.231647
H	 0.0820905882	 1.6674911913	-0.9182330515	 0.121607
H	-0.0627404775	 1.6071922997	 0.9149723246	 0.114762
H	 1.9219387576	-0.677519571	 2.0846494441	 0.077589
H	 3.9904494363	-1.5364357968	 0.1433966265	 0.100966
H	 2.3215212548	-2.1575897357	 0.0041783494	 0.121095
H	 2.2056108802	-0.4983498236	-1.9614798023	 0.087394
H	 5.066809563	 0.4833873088	 0.1152551027	 0.099311
H	 4.5123136298	 2.1565376831	 0.0564078111	 0.109758
H	 4.0633964091	 0.6024122542	 2.2152734296	 0.102052
H	 2.8281039223	 1.7633438323	 1.726114623	 0.106669
129.7835	209.4846	235.2222	287.7323	364.211	404.112	466.612	502.9595	621.4247	640.1342	804.074	811.7653	840.9606	870.7825	881.1204	929.5156	936.2606	944.9316	974.9606	1037.3443	1067.7435	1086.7769	1112.2061	1115.9802	1137.6938	1150.8888	1162.418	1195.4009	1221.5559	1246.7553	1266.2087	1279.0988	1304.6265	1337.1025	1361.0409	1407.0195	1451.1374	1484.3995	1490.6952	1520.2118	1542.0365	2999.7038	3033.659	3072.4243	3075.2231	3082.3318	3088.5917	3095.4236	3104.9831	3134.1587	3168.7066
C1OC11C2CC1OCC2	C1O[C@@]21[C@H]1C[C@@H]2OCC1	
InChI=1S/C7H10O2/c1-2-8-6-3-5(1)7(6)4-9-7/h5-6H,1-4H2	InChI=1S/C7H10O2/c1-2-8-6-3-5(1)7(6)4-9-7/h5-6H,1-4H2/t5-,6+,7+/m1/s1
