19
gdb 190	2.8540649	1.8720275	1.479577	1.4339	74.45	-0.23098	0.07667	0.30765	941.739	0.158434	-422.504705	-422.497574	-422.49663	-422.536047	29.126	
C	 0.3990574126	-0.2584508525	 3.6643884023	-0.333963
C	 0.7958632983	-0.3865226825	 2.2140002237	 0.074899
O	-0.098631241	-0.9803261173	 1.3264835685	-0.273847
C	-0.6917581026	-0.1730867581	 0.3106154892	 0.124982
C	-1.9602844161	 0.5574850496	 0.8298543002	-0.235088
C	-1.0465271176	 1.7680416931	 1.164673482	 0.124982
C	-0.047084904	 1.2239243841	 0.109879265	-0.286004
O	-0.5930226439	 1.724759104	 2.5166654458	-0.273847
C	 0.5459955544	 0.9806275752	 2.8155203791	 0.0749
H	-0.6200590673	-0.5465550291	 3.8958598509	 0.129191
H	 1.1309659646	-0.4647192016	 4.4372331386	 0.112108
H	 1.8363408419	-0.6285701295	 1.9985048338	 0.090252
H	-0.7971745546	-0.8194400308	-0.5640885375	 0.07785
H	-2.6656210795	 0.7830735871	 0.0241401951	 0.096851
H	-2.4843887844	 0.0932924979	 1.6671748131	 0.108149
H	-1.453409167	 2.7711604727	 1.0157036166	 0.07785
H	-0.2994035016	 1.6132844635	-0.8798814047	 0.108615
H	 1.0236769073	 1.3464817168	 0.2761135995	 0.111865
H	 1.4294691706	 1.5976326474	 2.977994839	 0.090252
84.1476	275.6353	304.6947	345.0354	394.6695	433.0114	451.8524	503.2772	705.2644	756.5224	758.8611	764.6757	814.4666	862.2219	886.1398	910.3917	914.7747	942.4597	987.8852	1021.0688	1052.0328	1070.6347	1075.6971	1086.9325	1138.1987	1147.2978	1163.4243	1165.0601	1176.3451	1225.3392	1250.5514	1274.7019	1284.324	1293.6752	1356.578	1380.3573	1398.8545	1404.1481	1449.0256	1471.3273	1478.2126	3055.8623	3068.887	3075.727	3085.831	3090.7059	3103.205	3128.5972	3133.5568	3138.9422	3233.9578
C1C2OC3CC(C3)OC12	C1[C@H]2O[C@H]3C[C@H](C3)O[C@@H]12	
InChI=1S/C7H10O2/c1-4-2-5(1)9-7-3-6(7)8-4/h4-7H,1-3H2	InChI=1S/C7H10O2/c1-4-2-5(1)9-7-3-6(7)8-4/h4-7H,1-3H2/t4-,5+,6-,7+
