19
gdb 366	2.7821788	1.6224619	1.5401908	1.3909	74.72	-0.23289	0.07942	0.31231000000000003	974.754	0.158443	-422.514129	-422.506764	-422.505819	-422.545604	29.372	
C	 0.7520107227	 1.3833945494	-0.0410650106	-0.336578
C	 1.5413472929	 0.0856739144	-0.0364713188	-0.360769
C	 0.0496518787	 0.0718048418	 0.0273708037	 0.437894
C	-0.8302856638	-0.5751739259	 1.0940015165	-0.035815
C	-2.0888563074	 0.2570272301	 1.3177114082	-0.066302
O	-2.4770090691	 0.9069021827	 0.1103038084	-0.270907
C	-2.1910869044	 0.1863766809	-1.0854898814	-0.066302
C	-0.9160027881	-0.6344127577	-0.9209648783	-0.035819
O	-1.1926449656	-1.6123041235	 0.1297307436	-0.305102
H	 0.7764962331	 2.0008926155	 0.8510070702	 0.116585
H	 0.6991952492	 1.9474065335	-0.9666996435	 0.116584
H	 2.0189319058	-0.2258224199	-0.960097011	 0.116264
H	 2.0962967043	-0.1723033404	 0.8600120483	 0.116263
H	-0.394154098	-0.9770889611	 2.0132340881	 0.08156
H	-2.8862312085	-0.4063881819	 1.6863196338	 0.100698
H	-1.9253475895	 1.0525962937	 2.0537137573	 0.104744
H	-3.0152046944	-0.4955234662	-1.3455683668	 0.100698
H	-2.0926074893	 0.9370062838	-1.87809411	 0.104744
H	-0.5584385086	-1.0906301292	-1.8487298779	 0.08156
146.7169	211.3707	220.636	243.276	363.314	410.1506	449.0333	569.4073	606.5074	719.1447	766.0201	852.4916	857.4201	864.7837	883.256	931.4124	934.6986	966.5804	971.6951	1019.8497	1027.2761	1054.1655	1062.1384	1078.1982	1101.9446	1144.3356	1182.0392	1198.4728	1227.8813	1236.9935	1269.7441	1290.9194	1299.7248	1326.2647	1365.8325	1400.9815	1437.6775	1463.8575	1485.9367	1497.7772	1516.0206	2987.7373	2994.2861	3061.5199	3063.1329	3072.8161	3075.6043	3123.2118	3128.3266	3200.9203	3215.2543
C1CC11C2COCC1O2	C1CC21[C@H]1COC[C@@H]2O1	
InChI=1S/C7H10O2/c1-2-7(1)5-3-8-4-6(7)9-5/h5-6H,1-4H2	InChI=1S/C7H10O2/c1-2-7(1)5-3-8-4-6(7)9-5/h5-6H,1-4H2/t5-,6+
