19
gdb 120	2.8222237	1.7283389	1.4528433	1.7368	73.89	-0.23195	0.06445	0.2964	967.1849	0.159008	-422.511365	-422.504113	-422.503169	-422.542717	29.214	
C	 1.4342057398	-0.1067428713	 2.9454256938	-0.376642
C	 1.0841616755	-1.1500367688	 1.8974961194	 0.197949
C	 2.1942969965	-1.190494256	 0.8472878742	-0.145502
O	 2.1350627948	 0.2536309651	 0.6595352738	-0.328428
C	 1.0326965982	 0.3265010063	 1.5737878399	 0.390033
C	-0.2706474276	 0.9761623786	 1.2032008338	-0.176406
O	-1.3431936243	 0.1948955123	 1.7275008477	-0.250464
C	-1.3204125884	-1.1580152858	 1.2862144221	-0.06741
C	-0.1848419213	-1.9691975799	 1.9478230898	-0.322589
H	 0.6825984885	 0.0185172916	 3.7182662268	 0.126315
H	 2.4638676183	 0.0319523515	 3.2626293893	 0.112405
H	 3.1895148333	-1.5281996539	 1.1617386042	 0.105052
H	 1.9045550186	-1.7102547697	-0.0745164354	 0.104669
H	-0.4020745178	 1.9796518733	 1.6189464477	 0.113075
H	-0.3308982895	 1.0395837797	 0.1048882813	 0.102478
H	-2.2998129197	-1.572260596	 1.5415578417	 0.110062
H	-1.2126230357	-1.1876614016	 0.1895136811	 0.091053
H	-0.456715857	-2.2069558984	 2.9814917066	 0.111733
H	-0.0624835022	-2.9234186672	 1.4226025322	 0.102617
115.7746	218.0018	308.5009	343.3745	373.7235	390.3204	465.9286	499.7537	550.8785	656.2172	758.5418	774.0075	830.6786	853.6135	919.6166	923.6169	963.9983	973.0985	978.2903	1016.8792	1043.0915	1053.5554	1083.0856	1103.5961	1149.3018	1170.654	1184.4284	1241.7289	1262.3294	1299.9591	1311.6241	1339.7382	1364.4894	1385.8143	1401.8107	1413.6318	1472.9309	1482.1905	1492.3016	1497.8254	1518.234	2971.8398	2983.0393	3012.2253	3037.2571	3061.1137	3077.6272	3078.0639	3090.9834	3116.7142	3214.4565
C1C23COC12COCC3	C1[C@]23CO[C@]12COCC3	
InChI=1S/C7H10O2/c1-2-8-5-7-3-6(1,7)4-9-7/h1-5H2	InChI=1S/C7H10O2/c1-2-8-5-7-3-6(1,7)4-9-7/h1-5H2/t6-,7+/m1/s1
