19
gdb 143	2.4567736	2.1559815	1.680561	0.7341	72.9	-0.22686	0.07415	0.30101	893.8888	0.1608	-422.544578	-422.537904	-422.536959	-422.575263	27.681	
C	-0.026040966	 2.1585151634	-0.4636101151	-0.242243
C	 0.6287256297	 2.127296093	 0.9079992045	-0.134123
C	 1.7000675616	 1.0663240061	 0.7807604198	 0.039038
O	 1.6383144367	 0.4546559339	-0.4799315896	-0.26059
C	 0.9351662044	 1.3397815199	-1.3669173487	 0.077814
C	 1.9500639053	 2.1930715136	-2.1492268047	-0.220802
C	 3.0942138356	 2.6763022574	-1.2548147182	-0.067204
O	 2.631916281	 3.3346018772	-0.0825973197	-0.26094
C	 2.0917590815	 2.5250637476	 0.9198218898	 0.066986
H	-1.0067080621	 1.6760979695	-0.4114621219	 0.105444
H	-0.1669297207	 3.1727656505	-0.8472804001	 0.112515
H	 0.0133712552	 2.25697466	 1.7907408823	 0.08604
H	 1.964098359	 0.3572770312	 1.5571856657	 0.100477
H	 0.3774396308	 0.7069964057	-2.0632272837	 0.085384
H	 2.38233205	 1.597334562	-2.9621585322	 0.099869
H	 1.433663347	 3.0434316519	-2.608863957	 0.101875
H	 3.7348837625	 1.8286155406	-0.9836634678	 0.111193
H	 3.7063434389	 3.4118058783	-1.785078792	 0.103526
H	 2.4975094897	 2.7911884084	 1.8937454986	 0.095741
156.2908	270.745	284.4009	385.5433	398.5036	498.3626	587.4812	665.6628	718.9089	725.088	760.5753	789.6697	803.3853	866.6886	904.6975	918.6074	941.3058	1008.9741	1022.808	1050.0033	1069.5996	1074.4742	1103.7541	1110.3813	1120.4498	1149.604	1195.5507	1224.9364	1246.1714	1283.7475	1295.7105	1311.0396	1346.2498	1354.5777	1361.5391	1391.838	1410.5669	1430.4925	1472.7948	1492.3931	1498.5468	3029.6324	3034.1006	3051.5183	3068.0857	3075.527	3092.6153	3100.4822	3123.8338	3170.2888	3180.5563
C1C2C3OC1CCOC23	C1[C@H]2[C@H]3O[C@@H]1CCO[C@@H]23	
InChI=1S/C7H10O2/c1-2-8-6-5-3-4(1)9-7(5)6/h4-7H,1-3H2	InChI=1S/C7H10O2/c1-2-8-6-5-3-4(1)9-7(5)6/h4-7H,1-3H2/t4-,5-,6+,7-/m1/s1
