19
gdb 227	2.7168055	2.1405123	1.9143706	0.9763	71.81	-0.23729	0.08813	0.32542	836.7853	0.162418	-422.566953	-422.561111	-422.560167	-422.596685	25.903	
C	-1.1649101406	-0.1782248955	-1.7333360372	-0.193625
C	-0.7015669088	 1.022882655	-0.8650323965	-0.078818
C	 0.7174832137	 1.3208619922	-1.3663465795	-0.093617
O	 1.4098627145	 0.070793943	-1.4971305227	-0.275378
C	 0.9307471608	-0.8681261352	-0.5307937443	 0.082657
C	 0.792552009	-0.1422905052	 0.8234172604	-0.222068
C	-0.644057919	 0.3517997714	 0.5796201762	 0.066125
O	-1.2744639613	-0.9259448501	 0.3993450011	-0.267303
C	-0.5889306906	-1.2639229123	-0.8187138822	 0.052911
H	-2.2495263394	-0.2864747139	-1.7848738186	 0.102617
H	-0.7471473569	-0.1490004811	-2.7408043421	 0.107271
H	-1.345831803	 1.9018916928	-0.9041775055	 0.07333
H	 0.6981984939	 1.7739376263	-2.3628812629	 0.106803
H	 1.2641044397	 2.0036384121	-0.7003452494	 0.091961
H	 1.6178090458	-1.7133862038	-0.555313694	 0.082198
H	 0.7953997494	-0.8191819373	 1.6794657128	 0.107199
H	 1.5699206672	 0.6117988997	 0.9569131154	 0.105607
H	-1.1343981245	 0.9043724594	 1.3802643277	 0.076641
H	-0.7742829497	-2.3059282173	-1.0768549188	 0.075489
319.5298	356.7671	433.6381	482.7267	524.3522	576.9099	611.764	654.7772	756.6904	770.8456	849.308	861.2924	894.5053	899.8512	926.2323	940.5787	959.9163	976.0485	985.1793	1004.4273	1042.4271	1066.9843	1076.2942	1082.6818	1137.9303	1159.8343	1182.5567	1230.0425	1242.0525	1257.0417	1280.9792	1289.8883	1313.663	1314.6148	1321.5131	1337.8835	1355.0656	1397.2299	1483.5775	1486.9746	1531.7119	2998.3134	3067.2682	3079.0312	3080.2103	3104.7025	3116.5166	3126.3937	3132.4154	3132.7857	3135.8161
C1C2COC3CC2OC13	C1[C@@H]2CO[C@H]3C[C@@H]2O[C@@H]13	
InChI=1S/C7H10O2/c1-4-3-8-6-2-5(4)9-7(1)6/h4-7H,1-3H2	InChI=1S/C7H10O2/c1-4-3-8-6-2-5(4)9-7(1)6/h4-7H,1-3H2/t4-,5+,6+,7+/m1/s1
