19
gdb 7	4.1381576	0.9181071	0.890079	1.6933	79.36	-0.21689	0.01767	0.23456	1410.1485	0.155825	-422.591051	-422.581494	-422.58055	-422.625815	34.524	
C	 1.7001606651	-1.3577179195	 3.0619724176	-0.398635
C	 0.190652633	-1.2729088292	 2.8034042617	 0.015397
O	-0.4044302481	-2.5716852816	 2.8114694111	-0.429054
C	-0.1321987676	-0.5330336831	 1.5442454425	 0.39861
C	-0.8405520897	 0.5892270971	 1.2555772717	-0.403719
C	-0.7949544784	 0.7638230001	-0.1732231954	 0.266725
C	-1.4258041507	 1.8584358362	-0.9761264364	-0.499405
C	-0.0599308168	-0.2814122815	-0.6351558016	-0.116664
O	 0.3564165597	-1.0789012055	 0.3900718402	-0.205153
H	 1.8853440294	-1.9302722336	 3.9744778923	 0.122311
H	 2.2041548218	-1.8553454165	 2.2272270087	 0.121882
H	 2.1356949008	-0.3596899676	 3.1726609615	 0.118569
H	-0.2893355637	-0.735400055	 3.6276328908	 0.100065
H	-0.1118867702	-3.0211400785	 2.0106212894	 0.284658
H	-1.3443509747	 1.2229635822	 1.9699626486	 0.108051
H	-1.0445543158	 2.8428368814	-0.6817123917	 0.130501
H	-1.227680368	 1.7304458923	-2.0439093186	 0.124653
H	-2.5127946016	 1.8809895369	-0.8386803371	 0.131804
H	 0.2448806954	-0.5886086146	-1.6224987853	 0.129405
45.8694	109.1323	132.4767	169.5949	249.7184	256.6169	275.6934	308.5682	366.3049	428.3227	501.0526	624.5583	634.0385	706.2661	726.4637	744.1099	822.0585	893.9938	953.2139	984.1845	1008.4896	1018.4058	1065.0341	1079.5624	1091.206	1155.3624	1167.5995	1236.641	1285.6032	1302.7804	1339.152	1394.9004	1401.8971	1417.0325	1421.3848	1482.7433	1489.2675	1493.144	1497.9074	1585.968	1664.3355	3029.346	3038.2512	3065.0916	3080.2691	3110.2093	3112.098	3124.2865	3246.4758	3270.8961	3804.8973
CC(O)C1=CC(C)=CO1	C[C@H](O)c1cc(C)co1	
InChI=1S/C7H10O2/c1-5-3-7(6(2)8)9-4-5/h3-4,6,8H,1-2H3	InChI=1S/C7H10O2/c1-5-3-7(6(2)8)9-4-5/h3-4,6,8H,1-2H3/t6-/m0/s1
