19
gdb 349	2.4565268	1.7363293	1.1695217	1.8737	76.69	-0.25252	0.01158	0.2641	1069.7131	0.1585	-422.528803	-422.521088	-422.520144	-422.560804	30.166	
C	-3.1151090851	-2.3077416251	 0.1922878164	-0.080785
C	-2.9520465389	-2.4605533049	 1.7113136168	-0.272678
C	-3.2990077321	-1.165291899	 2.401971154	 0.097151
O	-2.6769108269	-0.8762869742	 3.6548183687	-0.274852
C	-2.3257567949	-0.0733505013	 2.5061164166	 0.009586
C	-0.9052231801	-0.1619687243	 2.0686750137	-0.095308
C	-0.4066674934	-0.5993321957	 0.912933763	-0.037751
C	-1.0914956145	-1.1354160046	-0.3173291413	-0.136625
O	-2.5001388725	-1.1421000626	-0.3282471819	-0.231804
H	-2.7337629489	-3.2055869038	-0.319461386	 0.093331
H	-4.1748711358	-2.2047356376	-0.0653094142	 0.110504
H	-3.6031334559	-3.2718551083	 2.0588919136	 0.10407
H	-1.9262708995	-2.7375254003	 1.9667263915	 0.119193
H	-4.354135024	-0.8855280252	 2.3556686767	 0.084174
H	-2.718893774	 0.9437749049	 2.5673202858	 0.097199
H	-0.2004782407	 0.2033173017	 2.8143655287	 0.100825
H	 0.6764436802	-0.5651394495	 0.7898842764	 0.091545
H	-0.7826153007	-0.5129085564	-1.1693631749	 0.122153
H	-0.6986980424	-2.1469678039	-0.5266641534	 0.100071
108.7857	206.3918	233.4991	262.8423	305.4568	370.3886	427.1706	471.0807	556.9006	575.5177	699.2698	793.3294	806.234	831.6756	849.733	884.9409	915.3391	992.5886	1011.6735	1016.6482	1029.9431	1053.8963	1075.8341	1137.2998	1153.1336	1176.988	1245.6593	1251.0176	1275.927	1299.0349	1322.4405	1349.2605	1385.6423	1403.8934	1419.7575	1429.4862	1470.0745	1488.3602	1490.7773	1501.816	1739.1531	2944.4058	2981.7682	3017.275	3043.6818	3066.707	3073.5414	3085.6713	3111.7951	3117.4024	3143.2901
C1CC2OC2C=CCO1	C1C[C@H]2O[C@H]2C=CCO1	
InChI=1S/C7H10O2/c1-2-6-7(9-6)3-5-8-4-1/h1-2,6-7H,3-5H2/b2-1-	InChI=1S/C7H10O2/c1-2-6-7(9-6)3-5-8-4-1/h1-2,6-7H,3-5H2/b2-1-/t6-,7+/m0/s1
