19
gdb 18	3.7721566	1.0496352	0.8724348	0.9048	78.86	-0.21271	0.02254	0.23525000000000001	1352.8865	0.156049	-422.569078	-422.559821	-422.558877	-422.604005	33.043	
C	 1.4929953624	-0.2245730229	 0.8353973894	-0.233226
O	 0.1037491291	-0.1559993747	 0.6128325248	-0.241909
C	-0.4816008091	 1.0966354514	 0.9257605492	 0.017668
C	-0.2377016682	 2.1481823701	-0.1664797574	-0.401275
C	-1.9414571384	 0.8279921256	 1.1289927942	 0.357445
C	-2.6896161101	-0.3058928792	 1.1098047418	-0.261042
C	-4.0383707606	 0.0990769271	 1.3866127017	-0.176265
C	-4.0021808136	 1.4446043794	 1.5538368131	-0.024601
O	-2.7292950024	 1.9076276111	 1.3986385047	-0.191516
H	 1.7496839299	 0.0190002672	 1.8782195057	 0.106798
H	 1.7980015336	-1.2533258783	 0.6290502023	 0.129334
H	 2.0614659589	 0.4454952666	 0.1746267721	 0.10902
H	-0.0542641024	 1.4724630951	 1.8731478268	 0.079084
H	-0.7696634912	 3.0712337953	 0.0776414326	 0.1336
H	 0.8266190496	 2.3821108084	-0.2586588121	 0.113336
H	-0.6030613495	 1.7758168149	-1.127564666	 0.12879
H	-2.319716494	-1.2996940736	 0.921606484	 0.116987
H	-4.9109847518	-0.5319256903	 1.4514234571	 0.108604
H	-4.7456956122	 2.1920764068	 1.7752049159	 0.129167
45.8349	66.379	149.9269	160.1102	204.059	237.3117	319.6053	367.7405	423.8078	472.3956	613.4787	662.1895	730.3198	744.5642	814.189	854.6641	863.8116	901.5931	946.9749	1023.6276	1030.9549	1074.6931	1105.1042	1107.7511	1157.4114	1178.805	1183.4633	1223.9586	1234.7948	1246.1845	1353.8528	1370.6583	1394.3961	1419.7319	1477.9152	1483.2028	1492.9163	1499.3002	1512.5058	1543.0226	1639.1403	2934.6108	2979.3444	3029.0185	3047.0121	3114.4603	3121.4657	3131.1937	3253.9473	3281.0067	3287.8688
COC(C)C1=CC=CO1	CO[C@@H](C)c1ccco1	
InChI=1S/C7H10O2/c1-6(8-2)7-4-3-5-9-7/h3-6H,1-2H3	InChI=1S/C7H10O2/c1-6(8-2)7-4-3-5-9-7/h3-6H,1-2H3/t6-/m0/s1
