19
gdb 341	2.7080091	1.8041659	1.2705944	2.4556	74.7	-0.25318	0.07253	0.32571	1015.52	0.158837	-422.528875	-422.521571	-422.520627	-422.560405	29.152	
C	 2.2804990144	 1.2624897544	-2.7622913933	-0.251602
C	 1.292759867	 2.0333163518	-1.8248354569	-0.336544
C	 1.4176394884	 0.8605030087	-0.8601322856	 0.474742
O	 1.2357343484	 0.8422509673	 0.5406610571	-0.294812
C	 0.4272590119	-0.0347839978	-0.2635322925	-0.088134
C	 0.7599150357	-1.5138078645	-0.2155303717	-0.103564
O	 2.1105597673	-1.8028919756	-0.5264595831	-0.243398
C	 2.5462100734	-1.2134904708	-1.7448449768	-0.104668
C	 2.6417287907	 0.3030038475	-1.5821381272	-0.078006
H	 1.7624223283	 0.7416379751	-3.5721415208	 0.105586
H	 3.0994327639	 1.8439201197	-3.1876016245	 0.109178
H	 1.7405536062	 2.9410799484	-1.4098952699	 0.119054
H	 0.3008515646	 2.2753889512	-2.2138805926	 0.106989
H	-0.6332828529	 0.2170225959	-0.2872085959	 0.094848
H	 0.5860358735	-1.9187313542	 0.7867145875	 0.122118
H	 0.0820649062	-2.033988958	-0.916185207	 0.088407
H	 3.5090645974	-1.6762818265	-1.9777517122	 0.110909
H	 1.8435464108	-1.4621744795	-2.5590342134	 0.080864
H	 3.5718370449	 0.5898883069	-1.0832341411	 0.088032
111.8409	207.4858	268.2281	320.5968	365.9568	412.2211	451.7719	513.6173	570.8192	706.1552	718.3575	812.2946	827.9694	854.9413	918.5809	921.5721	935.6674	977.7075	995.208	1016.5023	1080.9267	1094.2229	1120.8349	1133.949	1159.7884	1167.6275	1212.0244	1234.5818	1260.8065	1266.4268	1269.1823	1311.3345	1320.6724	1356.6022	1378.3102	1412.7471	1475.3523	1479.1472	1483.9595	1497.1302	1517.8144	2949.1689	2956.3007	3058.6224	3065.951	3068.7778	3075.6815	3089.7382	3108.8714	3110.8834	3129.3546
C1CC23OC2COCC13	C1C[C@@]23O[C@@H]2COC[C@@H]13	
InChI=1S/C7H10O2/c1-2-7-5(1)3-8-4-6(7)9-7/h5-6H,1-4H2	InChI=1S/C7H10O2/c1-2-7-5(1)3-8-4-6(7)9-7/h5-6H,1-4H2/t5-,6-,7+/m1/s1
