19
gdb 210	2.405969	2.2524274	1.8442222	2.3351	72.82	-0.24332	0.08016	0.32348	861.1396	0.161062	-422.562736	-422.556392	-422.555448	-422.59302	26.841	
C	-0.7345350667	 1.2142104874	 1.0023249734	-0.233286
C	 0.4474458657	 2.1167164053	 1.3827499387	 0.116745
O	 0.8740626678	 2.9390065717	 0.2700649604	-0.301688
C	 1.8840967713	 1.9731548927	-0.0917427635	 0.099975
C	 1.4675249624	 1.1403862884	-1.2981120963	-0.090172
O	 0.2407415415	 0.4457433239	-1.1148620769	-0.279728
C	-0.0750186744	 0.0516605709	 0.2241568451	 0.10924
C	 1.1997877305	-0.2207717829	 1.0424518434	-0.25273
C	 1.7033954836	 1.2075440143	 1.2479048278	-0.093608
H	-1.2230986651	 0.8254857668	 1.9043952908	 0.092063
H	-1.4771753562	 1.7447946948	 0.4022650244	 0.117165
H	 0.2943419484	 2.7146104917	 2.2847731966	 0.074957
H	 2.8542487963	 2.4494614976	-0.2768835532	 0.076315
H	 1.3283425804	 1.7888382149	-2.1698341943	 0.11585
H	 2.2837897626	 0.436795158	-1.5337159241	 0.087173
H	-0.7329513142	-0.8154167605	 0.1262963491	 0.077256
H	 0.9505194075	-0.6964305237	 1.9970190464	 0.101806
H	 1.9072151633	-0.8701621076	 0.5185144101	 0.108267
H	 2.5036228253	 1.3423187763	 1.974388632	 0.074399
190.0154	334.7019	342.0488	412.3533	426.1131	458.7507	621.2506	641.814	795.3302	799.0346	805.8321	849.4792	877.8496	892.5075	896.1707	934.1783	944.0181	970.7544	1011.2158	1038.9482	1053.6549	1066.3097	1090.1208	1110.5478	1141.9423	1184.6972	1232.7916	1240.8185	1252.5407	1262.1847	1291.6274	1307.1269	1332.2477	1340.5519	1356.9929	1365.9724	1375.4514	1411.538	1456.4048	1484.2743	1502.2174	2964.196	3035.5276	3036.941	3048.6281	3067.7917	3075.5618	3082.4417	3095.7352	3115.2142	3121.2051
C1C2OC3COC1CC23	C1[C@@H]2O[C@@H]3CO[C@H]1C[C@H]23	
InChI=1S/C7H10O2/c1-4-2-6-5(1)7(9-6)3-8-4/h4-7H,1-3H2	InChI=1S/C7H10O2/c1-4-2-6-5(1)7(9-6)3-8-4/h4-7H,1-3H2/t4-,5+,6-,7+/m0/s1
