19
gdb 383	3.145951	1.5660222	1.4541875	0.6397	73.26	-0.24875	0.07529	0.32404	980.4284	0.159602	-422.554543	-422.547484	-422.54654	-422.585879	28.571	
C	 1.1321278925	 0.187417021	-1.3171274351	-0.268173
O	 0.0463244004	 0.1094834348	-0.3798214081	-0.284267
C	 1.3706773829	 0.2594710673	 0.1236153342	 0.473167
C	 2.0002554733	-0.8490712929	 0.9827197189	-0.319313
C	 2.5452492862	 0.00020815	 2.1521413098	 0.07625
C	 1.3817985207	 0.5146992252	 3.0307728968	-0.220131
C	 0.7783054337	 1.6262401166	 2.1186263541	-0.223536
C	 1.7176253439	 1.5382860931	 0.8960281632	-0.02089
O	 2.9825959613	 1.1944419157	 1.4745245226	-0.263748
H	 1.3478979578	-0.7354100875	-1.8551037229	 0.114383
H	 1.1618661923	 1.0927672806	-1.9227312798	 0.114793
H	 1.2590719523	-1.5957689474	 1.2779271693	 0.115482
H	 2.8170836487	-1.3510340385	 0.4575194842	 0.11049
H	 3.3837918005	-0.4370780319	 2.6934531488	 0.078983
H	 0.6660110777	-0.2728756755	 3.2788741133	 0.103943
H	 1.7644773968	 0.9305965983	 3.9653829725	 0.10644
H	-0.2623457817	 1.4461028764	 1.8427453668	 0.123352
H	 0.8485816325	 2.6108956898	 2.5852905962	 0.103443
H	 1.8094036081	 2.4414634451	 0.2934833353	 0.079334
98.7346	223.993	277.8897	339.9984	391.834	449.8525	515.6011	556.5652	679.1179	778.3184	815.5557	824.4642	836.3294	877.0844	890.6513	928.1465	940.5574	946.2291	971.0857	999.4396	1023.5254	1034.1779	1080.5067	1116.0479	1127.496	1158.2874	1184.0174	1205.1469	1231.2374	1241.6152	1267.1233	1278.5639	1303.963	1321.9877	1337.0206	1352.1976	1437.2248	1476.6537	1485.675	1505.4356	1535.2429	3062.1446	3066.3955	3075.8966	3078.0417	3108.0102	3114.6257	3124.1163	3127.3317	3132.3248	3161.7475
C1OC11CC2CCC1O2	C1O[C@]21C[C@@H]1CC[C@H]2O1	
InChI=1S/C7H10O2/c1-2-6-7(4-8-7)3-5(1)9-6/h5-6H,1-4H2	InChI=1S/C7H10O2/c1-2-6-7(4-8-7)3-5(1)9-6/h5-6H,1-4H2/t5-,6+,7-/m0/s1
