19
gdb 285	2.4697122	2.193802	1.5617845	2.7025	73.66	-0.25273	0.08377	0.3365	908.1312	0.160651	-422.539313	-422.532669	-422.531725	-422.569825	28.042	
C	-0.7819807789	-1.2192378641	 0.1550434642	-0.420153
C	-0.7175399628	-0.5677835627	-1.2119171594	-0.033046
C	 0.2183850221	-0.8187963031	-2.3718947212	-0.111192
O	 1.0352081782	 0.3528084012	-2.5814583963	-0.278846
C	 1.5013916704	 0.9905861984	-1.4018332684	 0.251429
C	 1.530682504	 0.0020788413	-0.2415582777	-0.323673
C	 0.0194885742	 0.0280752626	-0.024150957	 0.292452
C	-0.2186808373	 1.5101128495	 0.1217538666	-0.143213
O	 0.6241661265	 2.0297222562	-0.9358225379	-0.285236
H	-1.7437082398	-1.1793533862	 0.6561767937	 0.122842
H	-0.224284425	-2.1305623798	 0.3508297997	 0.118449
H	-1.6193280284	-0.0279232424	-1.4862479046	 0.098774
H	 0.8518221063	-1.7009585764	-2.2081066897	 0.095643
H	-0.315469023	-0.9696999492	-3.3130164881	 0.112901
H	 2.4376346681	 1.4771821435	-1.6792652688	 0.087583
H	 1.9508084283	-0.9697537558	-0.4993809178	 0.109724
H	 2.0722182376	 0.405479885	 0.6191872348	 0.106249
H	-1.2531912932	 1.8158278635	-0.0601749063	 0.105944
H	 0.1116576827	 1.9230082085	 1.085162174	 0.093366
208.4758	267.6407	365.2135	380.399	428.7697	477.3664	493.603	569.8878	588.8862	765.1437	804.0814	836.1181	850.0409	867.6413	894.3373	915.7285	924.1962	964.4137	994.6139	1001.3159	1054.3045	1065.8137	1082.403	1097.7603	1109.4712	1156.3129	1173.0332	1190.813	1245.5522	1266.3541	1288.0515	1319.1354	1328.6603	1371.9889	1375.1612	1395.3476	1440.1693	1488.4241	1491.694	1523.5201	1531.1079	3003.6876	3010.1172	3064.0624	3078.5545	3093.9198	3108.495	3122.5238	3135.4286	3146.726	3206.01
C1C2COC3CC12CO3	C1[C@@H]2CO[C@@H]3C[C@]12CO3	
InChI=1S/C7H10O2/c1-5-3-8-6-2-7(1,5)4-9-6/h5-6H,1-4H2	InChI=1S/C7H10O2/c1-5-3-8-6-2-7(1,5)4-9-6/h5-6H,1-4H2/t5-,6+,7+/m1/s1
