19
gdb 110	4.9063508	0.836903	0.7821064	2.6571	77.65	-0.23665	0.01193	0.24858	1474.1381	0.156763	-422.530682	-422.522151	-422.521207	-422.564999	30.863	
C	 0.6082466862	 2.6356645386	-1.9645734631	-0.240067
C	 1.6028232733	 3.72863652	-1.653512426	 0.102437
C	 1.2239722733	 5.1477998835	-1.6372399967	-0.17674
O	 1.957930043	 4.597209825	-2.7322983458	-0.241652
C	-0.0055865258	 2.0307766619	-0.6932660746	 0.086387
O	 1.0275624293	 1.4894358148	 0.1403352604	-0.280106
C	 0.7712049415	 0.1173331164	 0.4305967798	-0.114836
C	-0.4889037468	-0.2113383479	-0.3187234014	-0.096175
C	-0.9325829659	 0.8712133023	-0.945272187	-0.091657
H	-0.1884224031	 3.0435762435	-2.5979238585	 0.100232
H	 1.1034569244	 1.8374320673	-2.5301098566	 0.109009
H	 2.4430466547	 3.421395095	-1.0322005214	 0.108754
H	 0.1961801164	 5.4331467729	-1.8615983282	 0.10722
H	 1.771689574	 5.8511212579	-1.011452527	 0.114534
H	-0.5182748153	 2.8352914015	-0.1379173946	 0.081766
H	 1.6272193461	-0.4980710598	 0.1134909328	 0.108435
H	 0.6588611189	-0.0225705611	 1.5178336597	 0.106355
H	-0.9408993456	-1.195027267	-0.3151302761	 0.108887
H	-1.8206483783	 0.9533238855	-1.5589465056	 0.107218
62.6218	72.991	105.6024	140.48	269.1083	338.7263	393.9091	429.9436	534.9085	710.3881	752.2728	800.5397	830.2957	847.432	867.7416	916.1564	939.9409	959.704	993.9748	1022.4347	1031.4219	1046.7891	1103.8305	1108.5036	1131.1713	1137.6885	1155.1767	1182.4728	1196.7733	1233.8732	1270.5672	1292.8711	1324.8602	1359.1782	1385.5083	1387.2216	1440.2394	1475.1668	1521.9019	1530.6118	1692.327	2948.0689	2973.542	2993.5369	3032.5613	3077.3289	3078.8412	3126.4338	3163.9817	3207.2613	3231.7385
C(C1CO1)C1OCC=C1	C([C@@H]1CO1)[C@@H]1OCC=C1	
InChI=1S/C7H10O2/c1-2-6(8-3-1)4-7-5-9-7/h1-2,6-7H,3-5H2	InChI=1S/C7H10O2/c1-2-6(8-3-1)4-7-5-9-7/h1-2,6-7H,3-5H2/t6-,7-/m1/s1
