19
gdb 152	3.1827841	1.7544033	1.4146131	1.8239	74.67	-0.24599	0.08003	0.32602	960.0566	0.159738	-422.490936	-422.483977	-422.483033	-422.522262	27.937	
C	-0.5186231475	-0.3814176871	-0.479018199	-0.253053
C	-0.6601058361	-0.128536602	 1.0470428116	-0.154625
C	-0.2073807265	 1.3341747943	 0.7371401291	 0.164691
O	-0.4957340641	 2.3943775234	 1.6124089896	-0.262613
C	-0.9267867725	 2.0393475447	 2.9070604094	-0.096884
C	-2.3102101853	 1.3125547157	 2.8992275993	-0.096893
O	-2.8356670815	 1.1652190136	 1.5991658693	-0.262611
C	-2.1185965184	 0.3302250259	 0.7263103873	 0.164688
C	-1.2390161352	 0.9889146799	-0.3792936408	-0.112841
H	 0.4983374368	-0.3714747972	-0.8759907957	 0.10189
H	-1.1003487866	-1.2112553154	-0.8850472684	 0.10189
H	-0.32107221	-0.7826230221	 1.851043501	 0.077979
H	 0.8292600415	 1.4400963106	 0.3958294064	 0.0714
H	-0.1749913445	 1.4150013772	 3.412421139	 0.090747
H	-0.9950242084	 2.981237736	 3.4586905927	 0.112033
H	-2.2271104388	 0.3368442774	 3.4006997401	 0.09075
H	-3.0519365609	 1.9005545725	 3.447139941	 0.112031
H	-2.7910148697	-0.4616063064	 0.37532195	 0.071399
H	-1.5720469522	 1.6316848993	-1.193269652	 0.080022
88.7073	223.9611	275.4498	339.3076	387.2102	482.2521	502.6144	651.154	681.9919	766.5357	840.4363	846.0449	870.7013	875.5101	896.2034	914.7797	974.9542	976.8779	1016.9039	1048.1055	1067.3067	1089.0974	1095.2892	1123.6845	1155.3895	1173.7744	1176.2679	1216.6917	1219.4449	1240.6122	1260.8392	1272.739	1288.8911	1313.7637	1378.9973	1397.6852	1413.8211	1427.8258	1500.8949	1514.7649	1519.1962	2980.529	2998.059	3031.1668	3035.2735	3069.3464	3072.6034	3094.1474	3107.9987	3126.4099	3133.7343
C1C2C3OCCOC2C13	C1[C@H]2[C@@H]3OCCO[C@H]2[C@H]13	
InChI=1S/C7H10O2/c1-2-9-7-4-3-5(7)6(4)8-1/h4-7H,1-3H2	InChI=1S/C7H10O2/c1-2-9-7-4-3-5(7)6(4)8-1/h4-7H,1-3H2/t4-,5+,6-,7+
