19
gdb 128	3.0179769	1.8155163	1.6099102	0.771	73.37	-0.23499	0.09148	0.32647000000000004	912.832	0.160646	-422.553932	-422.547337	-422.546393	-422.584443	27.629	
C	-0.0347462492	 1.9678346541	-0.9969592993	-0.326622
C	 0.4220919115	 1.3660768188	 0.3069300232	-0.023997
C	 0.4186554231	 0.5313356542	-0.9540191837	-0.023997
C	-0.6671395868	-0.5088595817	-0.7034214347	 0.04798
C	-0.1048258363	-1.7340478004	 0.028057866	-0.080734
O	 0.6113057739	-1.3441740259	 1.193789034	-0.255767
C	-0.0994074848	-0.4215347234	 2.0107345921	-0.080734
C	-0.6620260216	 0.7318038553	 1.1707255336	 0.047981
O	-1.5609363576	 0.1481892576	 0.2117892808	-0.27996
H	-1.0903946235	 2.1765784994	-1.1322693147	 0.124092
H	 0.6381906553	 2.6759731304	-1.4675836219	 0.109877
H	 1.3442791237	 1.6918915364	 0.7721803769	 0.090876
H	 1.3382578572	 0.2280048561	-1.4391614516	 0.090877
H	-1.2504860973	-0.8009182133	-1.5822907043	 0.080392
H	-0.9438936019	-2.3983289766	 0.2884210262	 0.094931
H	 0.6040524045	-2.29149121	-0.5930755119	 0.104742
H	-0.9377756269	-0.9185768465	 2.5237461625	 0.094931
H	 0.6132284678	-0.0692564251	 2.7638009005	 0.104742
H	-1.2413035509	 1.4282298705	 1.7850785063	 0.080392
231.7358	239.8608	327.7528	332.0696	429.1109	458.551	527.9889	668.6962	741.655	783.511	818.8411	819.4683	859.0534	879.298	890.2234	897.7449	980.5481	1005.9508	1010.5754	1027.784	1056.9788	1059.4711	1086.8669	1106.0498	1113.281	1119.7878	1147.2226	1195.0355	1234.0083	1280.203	1285.0726	1304.6802	1326.1365	1347.1951	1352.8788	1376.4082	1384.1748	1417.6229	1475.1928	1479.3011	1491.2007	2981.9594	2987.6482	3064.7464	3067.4422	3075.5183	3077.5387	3134.9333	3184.5855	3192.4282	3224.1912
C1C2C1C1COCC2O1	C1[C@@H]2[C@H]1[C@H]1COC[C@@H]2O1	
InChI=1S/C7H10O2/c1-4-5(1)7-3-8-2-6(4)9-7/h4-7H,1-3H2	InChI=1S/C7H10O2/c1-4-5(1)7-3-8-2-6(4)9-7/h4-7H,1-3H2/t4-,5+,6+,7-
