19
gdb 100	4.3362859	0.9782718	0.8918126	2.153	75.83	-0.24758	0.08027	0.32785	1337.437	0.156114	-422.494551	-422.486137	-422.485193	-422.528489	31.153	
C	-0.7628968321	-0.2822385116	-1.3251310266	-0.364323
C	-0.1408588616	 0.0786880143	 0.0066848091	 0.105332
C	 0.6938645006	 1.2717684879	 0.1813882695	-0.182757
O	 1.2846671881	-0.025970019	 0.0878542451	-0.235126
C	-0.8374085785	-1.766665839	-1.5171875692	 0.443431
C	 0.3111763676	-2.7677149067	-1.7440015655	-0.277385
C	-0.7058066223	-3.6910745437	-2.5036131031	-0.23891
C	-1.7911417669	-2.6432793309	-2.221202111	-0.051905
O	-1.8579946058	-2.4813819038	-0.7965957283	-0.296019
H	-1.7759383145	 0.1337309652	-1.3781981958	 0.114448
H	-0.1678293984	 0.1661064294	-2.1290024546	 0.108037
H	-0.6625130059	-0.3154530652	 0.8795519219	 0.109117
H	 0.8735007295	 1.9294493814	-0.6687586257	 0.111611
H	 0.7625464578	 1.7490147926	 1.1578295391	 0.116147
H	 1.0971511234	-2.3805406108	-2.3962395342	 0.109166
H	 0.7604116145	-3.1647571555	-0.8317622307	 0.115491
H	-0.4687230414	-3.7920000733	-3.5654283319	 0.104441
H	-0.8962729263	-4.6779995954	-2.0757951932	 0.111513
H	-2.6900689878	-2.4129568559	-2.7831708947	 0.09769
58.7654	67.2265	121.8345	238.7887	286.4244	341.5369	380.4196	460.5117	495.658	708.8397	728.5863	769.6286	789.5822	854.8444	879.4482	901.1379	919.3006	947.6432	953.569	969.3475	1018.257	1041.4752	1092.1757	1106.7455	1152.9984	1159.0263	1167.3909	1187.7966	1210.2391	1218.6958	1249.4256	1259.6417	1292.5181	1307.0238	1323.4524	1440.472	1448.2757	1460.2214	1464.0353	1493.2949	1530.4997	3033.5244	3065.9106	3075.9038	3079.8639	3081.5013	3112.1413	3117.8494	3135.563	3167.2284	3175.2769
C(C1CO1)C12CCC1O2	C([C@@H]1CO1)[C@]12CC[C@H]1O2	
InChI=1S/C7H10O2/c1-2-7(6(1)9-7)3-5-4-8-5/h5-6H,1-4H2	InChI=1S/C7H10O2/c1-2-7(6(1)9-7)3-5-4-8-5/h5-6H,1-4H2/t5-,6-,7-/m1/s1
