19
gdb 37	3.1243016	1.0827855	0.85397	1.6081	81.1	-0.18762	0.02763	0.21525	1392.528	0.155271	-422.591712	-422.581739	-422.580795	-422.627097	35.162	
C	 1.373059726	-0.7713861335	 0.3051616786	-0.370335
C	 0.7632676698	 0.4681661586	-0.3725453464	-0.293992
C	 1.4624127729	 1.7373197786	-0.0254229836	 0.388967
C	 1.0737523452	 2.8706898656	 0.6219784846	-0.429269
C	 2.222520252	 3.729585845	 0.6429212687	 0.231632
O	 2.3338831549	 4.9787699055	 1.1821890168	-0.448114
C	 3.2338753561	 3.0707452418	 0.0127979411	 0.254579
C	 4.6440583838	 3.4222425648	-0.2828032126	-0.500634
O	 2.7660905361	 1.844041452	-0.3985446452	-0.2236
H	 0.8430497657	-1.6793519332	 0.0017271698	 0.111022
H	 2.4255724612	-0.8817921623	 0.0307583961	 0.132631
H	 1.3163168107	-0.6883797221	 1.3948033642	 0.120056
H	 0.7801064429	 0.3269859175	-1.4614833685	 0.115583
H	-0.2885809823	 0.5744811115	-0.0880700252	 0.110053
H	 0.0948310582	 3.0726280106	 1.0311724239	 0.099596
H	 1.4818379412	 5.2332395992	 1.5460836593	 0.298191
H	 4.8481105689	 4.4252121527	 0.0995247395	 0.144315
H	 5.3495165145	 2.7274122735	 0.1891581111	 0.129516
H	 4.8514878723	 3.4186059542	-1.359809262	 0.129805
51.1282	95.8706	117.8625	156.3046	194.4045	221.0411	246.1444	284.3186	310.9697	402.7556	491.6248	583.3471	645.2567	662.3052	692.0618	758.6196	785.9437	794.8754	950.0392	965.3644	1027.1595	1064.6432	1077.91	1085.735	1102.046	1171.5527	1239.225	1268.1824	1306.6801	1330.561	1355.8895	1406.0281	1412.0792	1457.7278	1474.3043	1474.7014	1494.7441	1496.471	1507.1926	1610.9509	1719.5126	3018.8952	3019.8094	3040.8529	3064.4774	3076.6323	3111.3544	3122.9471	3126.5403	3238.2216	3852.7985
CCC1=CC(O)=C(C)O1	CCc1cc(O)c(C)o1	
InChI=1S/C7H10O2/c1-3-6-4-7(8)5(2)9-6/h4,8H,3H2,1-2H3	InChI=1S/C7H10O2/c1-3-6-4-7(8)5(2)9-6/h4,8H,3H2,1-2H3
