19
gdb 286	2.4640375	2.2441319	1.5526636	1.6507	73.61	-0.24022	0.08019	0.32041	912.2535	0.160054	-422.546133	-422.53931	-422.538366	-422.576912	28.399	
C	 2.2573571227	 1.0236932934	-2.2783975513	-0.410845
C	 0.9790688271	 0.1932139679	-2.33141602	-0.093355
C	-0.4055119702	 0.7281036639	-2.6410300294	-0.087642
O	-1.2127134907	 0.6929773199	-1.4470774085	-0.292148
C	-0.5340593267	 1.1904518983	-0.2941314674	 0.205651
C	 0.0217152283	 0.0461303923	 0.6107345012	-0.244105
C	 1.5311609398	-0.030343676	 0.209908179	-0.3061
C	 1.4688748958	 0.8132945929	-1.0406114764	 0.427939
O	 0.6204271337	 1.9025179638	-0.6886130357	-0.273723
H	 3.1884492384	 0.482553014	-2.405135312	 0.122567
H	 2.2561094118	 2.0282906209	-2.6885700972	 0.129208
H	 1.1170286701	-0.8781088296	-2.4404358497	 0.091506
H	-0.358702593	 1.7493909836	-3.0360035434	 0.104341
H	-0.9395859606	 0.105933326	-3.3622863864	 0.108241
H	-1.2158363174	 1.8731425701	 0.2192486328	 0.08471
H	-0.1068733208	 0.2919099371	 1.6675809416	 0.105334
H	-0.5147934941	-0.8815817461	 0.4047216403	 0.115313
H	 2.1683884607	 0.4208184672	 0.9764617867	 0.107867
H	 1.8765089052	-1.0491678494	 0.023839916	 0.105241
151.2432	247.7433	333.4649	370.9598	397.4781	483.3756	523.7343	581.5513	647.9384	740.7979	788.188	802.1107	842.2324	852.4579	885.9465	908.5595	920.5676	954.0377	982.9328	999.31	1017.1392	1054.2165	1076.1832	1104.1997	1107.5409	1144.488	1160.9079	1212.9853	1231.2844	1269.6287	1275.7777	1303.601	1327.6233	1346.7818	1367.6952	1390.1126	1421.6999	1474.8792	1483.1476	1498.9255	1504.2832	3034.9763	3056.4387	3071.9079	3085.4013	3104.3586	3111.7798	3132.2337	3133.8734	3154.9652	3222.7315
C1C2COC3CCC12O3	C1[C@@H]2CO[C@H]3CC[C@@]12O3	
InChI=1S/C7H10O2/c1-2-7-3-5(7)4-8-6(1)9-7/h5-6H,1-4H2	InChI=1S/C7H10O2/c1-2-7-3-5(7)4-8-6(1)9-7/h5-6H,1-4H2/t5-,6-,7-/m1/s1
