19
gdb 392	3.2459595	1.431299	1.2307952	1.4118	74.01	-0.2477	0.06235	0.31005	1056.4824	0.158131	-422.528612	-422.521081	-422.520137	-422.560811	29.485	
C	 0.6113984847	 0.8914753124	-0.8478715025	-0.268601
O	 0.0383953309	-0.0931059697	 0.0228786635	-0.274831
C	 1.4298052325	 0.1553923152	 0.1192638767	 0.447813
C	 2.4927954925	-0.9240539298	-0.1057474656	-0.343522
C	 3.2633758594	-0.3718980996	 1.1343176601	 0.106844
O	 4.4295564569	 0.3804300359	 0.8557423599	-0.25751
C	 4.04761738	 1.7115764813	 0.5198525606	-0.086078
C	 2.8006091446	 2.0108862569	 1.3673570709	-0.236432
C	 2.1050918348	 0.6471295716	 1.4115773284	-0.138731
H	 0.6475552712	 0.6191717136	-1.9024020177	 0.115256
H	 0.31465597	 1.920181241	-0.6452525958	 0.113642
H	 2.0986730305	-1.9334188644	 0.0409548178	 0.117807
H	 3.0474022937	-0.887344265	-1.0467266227	 0.112399
H	 3.5144362868	-1.1070942597	 1.9004877614	 0.084906
H	 4.8972730819	 2.3655223586	 0.7323177668	 0.110933
H	 3.8146310867	 1.7924530285	-0.5538175979	 0.093466
H	 3.0929393602	 2.3138211482	 2.3776004789	 0.110846
H	 2.1815891816	 2.8038583109	 0.9391125912	 0.104387
H	 1.5000555912	 0.4813680941	 2.3042288859	 0.087407
62.2437	183.1894	242.6078	293.0079	338.9095	387.9954	453.5801	535.5297	636.1977	682.6328	782.62	824.6551	852.7842	864.9262	894.8433	898.614	927.166	957.7475	983.0022	1008.5271	1037.0067	1059.2309	1122.6885	1127.7948	1139.3406	1159.6629	1168.0564	1201.9865	1216.6916	1228.9603	1262.5193	1265.5164	1289.303	1331.285	1352.4753	1393.7326	1423.9517	1462.8325	1480.8202	1522.7451	1532.7773	2979.3973	3053.9992	3060.7986	3076.0545	3091.6787	3094.307	3104.3801	3108.5327	3119.3509	3161.264
C1OC11CC2OCCC12	C1O[C@]21C[C@H]1OCC[C@@H]21	
InChI=1S/C7H10O2/c1-2-8-6-3-7(4-9-7)5(1)6/h5-6H,1-4H2	InChI=1S/C7H10O2/c1-2-8-6-3-7(4-9-7)5(1)6/h5-6H,1-4H2/t5-,6-,7+/m1/s1
