19
gdb 3	2.4840899	1.3116776	1.0558007	1.6033	78.88	-0.19589	0.0248	0.22069	1226.8961	0.155746	-422.585977	-422.576376	-422.575432	-422.620784	34.719	
C	-3.7797703268	 1.8551823313	-1.2189367247	-0.381494
C	-3.3803574103	 1.273836232	 0.1514827204	-0.088818
C	-4.2124254167	 0.0196749466	 0.4836708681	-0.381481
C	-1.915025401	 1.0017810306	 0.2305325193	 0.291485
C	-0.9141609038	 1.4924917639	 1.0164724648	 0.186189
O	-1.0917255396	 2.4333611012	 1.9890768894	-0.446629
C	 0.3015504578	 0.841494371	 0.6223452768	-0.307265
C	-0.0506595172	-0.0039289167	-0.3814346783	-0.005739
O	-1.3774373597	 0.0762487866	-0.633072532	-0.194237
H	-3.5620785232	 1.1409002996	-2.0193337325	 0.123572
H	-4.85127784	 2.0788098449	-1.2464737117	 0.107222
H	-3.2304896917	 2.776983424	-1.4312966502	 0.116166
H	-3.5786841346	 2.0319571501	 0.9184153828	 0.098433
H	-3.9703166466	-0.3614280339	 1.4799955429	 0.116197
H	-5.2831083671	 0.246806575	 0.4527692906	 0.10722
H	-4.0142070406	-0.7776030131	-0.2397232887	 0.12354
H	-0.2428219122	 2.6167952117	 2.400283136	 0.298923
H	 1.2899947671	 0.9868581873	 1.0315248382	 0.104964
H	 0.5056642762	-0.6977572422	-0.9898550311	 0.131753
41.4251	125.5044	141.4609	162.325	219.2038	246.6081	280.7873	297.0762	391.864	419.8053	533.5357	612.9573	633.5425	700.6905	716.6047	734.7837	784.7846	875.07	909.808	930.053	959.2322	1039.1891	1071.8442	1078.7339	1121.2404	1183.4103	1197.666	1240.3849	1273.4773	1313.4304	1334.9972	1377.4638	1393.2977	1414.4004	1463.9881	1486.0949	1491.4998	1500.0494	1511.5489	1543.8883	1703.0093	3032.2211	3036.3198	3043.2983	3101.7679	3107.5187	3111.1686	3114.5747	3242.4521	3280.3673	3850.9323
CC(C)C1=C(O)C=CO1	CC(C)c1c(O)cco1	
InChI=1S/C7H10O2/c1-5(2)7-6(8)3-4-9-7/h3-5,8H,1-2H3	InChI=1S/C7H10O2/c1-5(2)7-6(8)3-4-9-7/h3-5,8H,1-2H3
