19
gdb 318	2.8721474	1.7297184	1.293764	1.8554	73.47	-0.24869	0.08061	0.3293	1005.0898	0.159438	-422.552761	-422.54538	-422.544436	-422.584673	28.705	
C	 0.7136771279	-1.1666048488	-1.1919650367	-0.243626
C	 0.6436746416	-0.1244363529	-2.3475647947	-0.255845
C	 1.3315361546	 1.1606574832	-1.8317049494	-0.084305
C	 2.8333840071	 1.3653868284	-2.0545343268	-0.086942
O	 3.2749749469	 2.1709598193	-0.9528882684	-0.269444
C	 2.4659969883	 1.9091508328	 0.1983742957	-0.171288
C	 1.3602541254	 1.0163860736	-0.3202000445	 0.426748
O	 0.1299408166	 0.7464643291	 0.327142121	-0.326844
C	 1.0253463965	-0.3593745372	 0.0516036167	-0.034386
H	-0.208309446	-1.7490088854	-1.1024200119	 0.114668
H	 1.530687306	-1.8817607854	-1.3447390318	 0.108038
H	 1.097812411	-0.503646972	-3.2678148246	 0.104713
H	-0.3992637696	 0.1010419577	-2.5800275401	 0.119044
H	 0.7933512062	 2.0623835155	-2.1416801992	 0.0864
H	 3.3640701232	 0.3987895324	-2.06675212	 0.086583
H	 3.0822275136	 1.9033722791	-2.9728869176	 0.11109
H	 3.0617895356	 1.4327834119	 0.9879392312	 0.104064
H	 2.0763951391	 2.8584867952	 0.5867053918	 0.114572
H	 1.429966226	-0.8385795264	 0.9398469892	 0.096759
91.6903	165.0145	199.188	282.8958	359.8312	420.6426	521.7343	574.2219	654.1139	698.3814	770.3876	798.3571	850.9273	877.4904	920.7898	923.9862	956.1916	989.9735	1012.8397	1048.389	1071.0445	1079.2599	1092.8094	1133.531	1174.5832	1200.0967	1219.4522	1228.981	1240.1091	1287.5995	1303.7346	1314.6733	1335.3131	1346.2431	1358.6164	1400.0474	1473.5656	1492.2064	1494.8162	1516.5134	1526.2038	2965.9937	3011.8567	3040.7606	3047.1149	3053.7732	3065.9001	3082.2958	3092.0621	3110.143	3145.6166
C1CC2COCC22OC12	C1C[C@@H]2COC[C@]32O[C@@H]13	
InChI=1S/C7H10O2/c1-2-6-7(9-6)4-8-3-5(1)7/h5-6H,1-4H2	InChI=1S/C7H10O2/c1-2-6-7(9-6)4-8-3-5(1)7/h5-6H,1-4H2/t5-,6+,7-/m1/s1
