19
gdb 168	3.0437946	1.7214018	1.3889511	1.9742	74.6	-0.23283	0.07581	0.30864	972.5697	0.15906	-422.492044	-422.485139	-422.484195	-422.522891	28.67	
C	-0.1368413048	 1.3803957045	 0.1991665691	-0.271715
C	 0.1335046171	-0.1277062132	 0.0853815046	-0.025195
O	 1.5374561558	 0.1792028484	-0.3366144416	-0.369519
C	 1.2606509408	 1.0713387143	 0.816327672	 0.43111
C	 2.1727765769	 1.9646525717	 1.592927288	-0.360431
C	 1.3773896227	 2.2267090233	 2.9057310322	-0.217168
C	 0.7848100966	 0.9474582421	 3.5401616201	-0.068904
O	-0.0771029225	 0.1981349494	 2.6720452654	-0.265975
C	 0.6765065962	-0.1434628377	 1.5383685001	 0.107151
H	-0.1087191663	 1.9267294672	-0.744263516	 0.102348
H	-0.9332015529	 1.7016692138	 0.8708494805	 0.112204
H	-0.3880051054	-0.8974523127	-0.4823057849	 0.095022
H	 3.1086755887	 1.4362360121	 1.8110361575	 0.114952
H	 2.4208979901	 2.9029341702	 1.0870710918	 0.109156
H	 2.0244515036	 2.705464931	 3.6483188756	 0.106501
H	 0.5607864244	 2.9264975334	 2.6958011558	 0.116603
H	 1.6056397613	 0.2968397115	 3.8853163617	 0.094382
H	 0.1776932104	 1.209696251	 4.4103108188	 0.113276
H	 1.3959853972	-0.9490035004	 1.7330214094	 0.0762
180.1134	239.9868	330.6527	352.366	390.3941	435.5225	511.438	562.6755	623.9186	653.6081	728.2477	825.0644	846.7938	881.2848	906.9029	919.3611	952.8433	961.7347	984.3216	1003.391	1044.9541	1055.4128	1082.8111	1113.8632	1143.6368	1174.1085	1202.5455	1215.4576	1216.4992	1230.0677	1275.1558	1298.6859	1311.6141	1353.1111	1365.9356	1392.9103	1410.5393	1477.3545	1484.2698	1488.6634	1498.7013	2970.2195	3033.7602	3038.1118	3042.1384	3081.054	3082.6222	3091.035	3097.9009	3128.1791	3161.7777
C1C2OC11CCCOC21	C1[C@H]2O[C@]31CCCO[C@@H]23	
InChI=1S/C7H10O2/c1-2-7-4-5(9-7)6(7)8-3-1/h5-6H,1-4H2	InChI=1S/C7H10O2/c1-2-7-4-5(9-7)6(7)8-3-1/h5-6H,1-4H2/t5-,6+,7+/m1/s1
