19
gdb 289	2.4725241	2.2232057	1.5491702	2.0464	73.97	-0.23344	0.07201	0.30545	914.6356	0.159792	-422.532086	-422.525246	-422.524302	-422.562927	28.332	
C	 2.795685874	 1.3119189704	-2.0048285445	-0.424237
C	 2.332099008	 1.9544883203	-0.7115658352	 0.051111
O	 1.4992096767	 3.0714997853	-0.7056900443	-0.240592
C	 0.2601950337	 2.7560436787	-0.0594958287	-0.087781
C	-0.2752712862	 1.3561482544	-0.5095807131	 0.060568
C	 0.1250783799	 0.1471413539	 0.3998949598	-0.232831
C	 1.3947263339	-0.4329647806	-0.3087546474	-0.298423
C	 1.6523453185	 0.7198610447	-1.2496580182	 0.398415
O	 0.3757058392	 1.0690168709	-1.7487029862	-0.266812
H	 2.5400823614	 1.7966688031	-2.9401258319	 0.137174
H	 3.7620114892	 0.8197504942	-1.9830737078	 0.119888
H	 2.9883531987	 1.8603980563	 0.1550400749	 0.079331
H	 0.3748337943	 2.7980823062	 1.034873658	 0.08832
H	-0.4346489583	 3.5449830938	-0.3600738901	 0.112619
H	-1.3522457836	 1.4062818481	-0.6828939612	 0.082826
H	 0.3409621252	 0.4672535607	 1.4230510867	 0.102997
H	-0.6816973865	-0.5878229728	 0.4464703884	 0.108029
H	 2.2211338337	-0.6204609455	 0.3804564157	 0.102116
H	 1.1661967181	-1.3601247019	-0.8421632848	 0.107282
142.2949	244.2027	326.3826	353.3449	403.7013	487.2383	542.8308	570.1954	650.2202	738.6912	778.1249	825.4458	845.8041	860.9867	864.7576	920.4738	930.7356	953.3023	1014.8027	1025.9295	1038.1839	1054.2407	1075.6803	1091.4019	1105.165	1148.7692	1182.1399	1205.0115	1227.1615	1252.7316	1272.9867	1302.2661	1330.6108	1334.4954	1351.6747	1383.6253	1414.6299	1475.2318	1482.4241	1499.7518	1510.3124	2983.0379	3057.1375	3064.6236	3081.5347	3085.8726	3094.7895	3105.1405	3118.9825	3138.444	3232.4741
C1C2OCC3CCC12O3	C1[C@H]2OC[C@@H]3CC[C@]12O3	
InChI=1S/C7H10O2/c1-2-7-3-6(7)8-4-5(1)9-7/h5-6H,1-4H2	InChI=1S/C7H10O2/c1-2-7-3-6(7)8-4-5(1)9-7/h5-6H,1-4H2/t5-,6+,7-/m0/s1
