19
gdb 262	3.4629035	1.6167563	1.4077473	0.2942	73.66	-0.24264	0.07668	0.31932	958.9323	0.160359	-422.526593	-422.519842	-422.518898	-422.557496	27.652	
C	-1.1617630821	 0.5689298326	-0.5476792931	-0.276029
C	-1.0148858759	 1.5172524772	-1.7469336218	 0.072364
O	-1.4540851738	 2.7857079912	-1.2008674896	-0.286851
C	-0.7822839708	 2.8269270674	 0.0926366606	-0.164116
C	-0.0299434125	 1.5097073279	 0.0053038051	 0.281731
C	 1.1084592092	 0.9313459213	 0.7989297818	-0.196178
O	 1.7221760604	 0.0109498989	-0.1111289221	-0.273469
C	 1.4738896595	 0.392546961	-1.4821448108	-0.118948
C	 0.5072086289	 1.5807715872	-1.466428435	-0.043634
H	-2.124893739	 0.5727445762	-0.0329349468	 0.100094
H	-0.8147085677	-0.4488400804	-0.7191806306	 0.121863
H	-1.4737104406	 1.3776851211	-2.7247062359	 0.079771
H	-0.1300619515	 3.7058657494	 0.1485425089	 0.104349
H	-1.5277676003	 2.8786385714	 0.8941584604	 0.103122
H	 1.8173529009	 1.7158967394	 1.1103842628	 0.092257
H	 0.8096766694	 0.3624011787	 1.6850026589	 0.110915
H	 2.4219325724	 0.6771921083	-1.9537178438	 0.103094
H	 1.0917626118	-0.4895624834	-2.0086231949	 0.106899
H	 0.9786896816	 2.5164000349	-1.7765851743	 0.082765
129.0612	258.8673	305.8785	354.4381	403.6712	464.3868	526.5523	653.9631	699.4335	757.0147	823.2209	832.1625	872.8241	892.97	903.0288	953.2376	957.1517	988.7435	1015.1063	1042.5109	1048.0138	1083.5106	1099.7857	1118.7738	1144.4519	1186.8968	1189.4145	1221.4274	1230.7116	1239.9009	1253.7245	1273.3658	1286.7995	1337.0905	1365.4428	1382.4601	1396.6927	1494.035	1514.5846	1527.0128	1533.2515	2971.2971	3024.1526	3026.3754	3053.348	3067.8534	3073.4919	3080.8206	3083.1346	3132.9705	3157.3583
C1C2OCC11COCC21	C1[C@H]2OC[C@]31COC[C@@H]23	
InChI=1S/C7H10O2/c1-6-5-2-8-3-7(1,5)4-9-6/h5-6H,1-4H2	InChI=1S/C7H10O2/c1-6-5-2-8-3-7(1,5)4-9-6/h5-6H,1-4H2/t5-,6+,7-/m0/s1
