19
gdb 131	2.8851853	1.8226424	1.6094901	1.2448	72.52	-0.24812	0.0861	0.33422	910.0964	0.160838	-422.553817	-422.547262	-422.546318	-422.584314	27.424	
C	 2.0028912768	-1.4659965409	 0.0996167121	-0.233376
C	 0.8350078667	-1.2726304776	-0.8921113769	-0.082243
C	 1.4299837262	-1.2993607904	-2.3151391648	-0.078838
O	 2.3829863014	-0.2630552706	-2.5175914273	-0.253415
C	 3.3623257183	-0.1260362673	-1.4952153638	-0.078838
C	 2.7349776196	-0.1189653	-0.0859241319	-0.082243
C	 1.5738520882	 0.8735048778	-0.0875742512	 0.072776
O	 0.4915913921	 0.5386635945	 0.7926585254	-0.275642
C	 0.3960157545	 0.15831866	-0.5873525692	 0.072776
H	 1.6430358615	-1.5870088538	 1.1208662688	 0.118252
H	 2.6324865604	-2.3220875639	-0.1590954713	 0.089485
H	 0.0430085557	-2.021496585	-0.7982613666	 0.071676
H	 1.8818940227	-2.2885161049	-2.497603105	 0.09048
H	 0.6620415519	-1.1368212718	-3.0788307134	 0.108038
H	 4.1062535357	-0.9378775379	-1.553772392	 0.090481
H	 3.8770962956	 0.8153701227	-1.7146330854	 0.108038
H	 3.5015239897	 0.0785218012	 0.6692424081	 0.071676
H	 1.7390698784	 1.9342321264	-0.2545304407	 0.095458
H	-0.3923836056	 0.6400111216	-1.158939475	 0.095459
233.0896	250.3614	329.6769	337.1202	438.1457	460.9833	511.3975	633.428	762.7484	789.5207	825.976	830.2718	868.6908	875.1593	892.9325	933.793	937.5283	981.3534	1004.9555	1045.1783	1047.2119	1056.372	1085.0345	1119.2639	1131.0201	1180.7055	1213.6225	1243.9159	1252.023	1276.5285	1302.6473	1316.123	1333.8013	1341.0156	1342.2406	1391.594	1410.4717	1433.5003	1491.7952	1496.5663	1510.5756	2965.5704	2971.2563	3062.1675	3065.0517	3070.7752	3071.1075	3075.7177	3134.6128	3149.4615	3161.8103
C1C2COCC1C1OC21	C1[C@@H]2COC[C@H]1[C@@H]1O[C@H]21	
InChI=1S/C7H10O2/c1-4-2-8-3-5(1)7-6(4)9-7/h4-7H,1-3H2	InChI=1S/C7H10O2/c1-4-2-8-3-5(1)7-6(4)9-7/h4-7H,1-3H2/t4-,5+,6-,7+
