19
gdb 2	3.1838909	1.173756	1.0523035	1.4619	76.64	-0.22287	0.01851	0.24138	1210.2333	0.155817	-422.59163	-422.582536	-422.581591	-422.625277	34.434	
C	-2.0890239724	 2.3550208008	 1.7521844439	-0.417838
C	-1.9667871516	 1.4187715958	 0.5388037331	 0.227007
C	-2.651336749	 2.0320300467	-0.6896415989	-0.383461
O	-2.6812906814	 0.2034839703	 0.7932883045	-0.454642
C	-0.51814299	 1.1018536195	 0.2392669648	 0.233098
C	-0.0102420938	-0.1320160942	-0.0298971915	-0.115595
O	 1.3289191203	-0.0673790299	-0.2657153292	-0.148066
C	 1.683852094	 1.2375032635	-0.1480494342	 0.007279
C	 0.6040986615	 2.0003482292	 0.1592815426	-0.314634
H	-1.6141565068	 1.9107082565	 2.6338532376	 0.109824
H	-1.6070581237	 3.3197725339	 1.5670134965	 0.116364
H	-3.144887965	 2.5314490001	 1.9757225604	 0.121566
H	-2.6102605963	 1.3307312005	-1.5264603089	 0.126458
H	-3.699781217	 2.2494371839	-0.4652559188	 0.117809
H	-2.1538948581	 2.958882816	-0.9877360109	 0.113924
H	-2.2985309416	-0.1931582531	 1.5839945073	 0.273897
H	-0.4578684186	-1.108091814	-0.1010495619	 0.142122
H	 2.7272739631	 1.4559769256	-0.305762374	 0.135838
H	 0.6006415762	 3.0684928789	 0.3117058076	 0.109049
57.4126	146.5395	190.557	224.6842	267.1638	323.0554	329.1296	356.0723	367.9615	467.6258	487.6578	606.2226	624.4373	687.2005	740.2886	802.1405	830.4753	853.1758	893.5801	927.9638	958.8089	982.7467	1015.7824	1053.6272	1096.1847	1117.0541	1170.7649	1191.5851	1214.8254	1255.4784	1307.634	1364.6597	1395.3334	1397.406	1415.7645	1476.527	1481.8263	1495.2689	1503.7502	1533.3243	1624.2808	3033.0921	3045.2905	3102.8548	3116.7728	3123.1163	3130.1311	3250.2888	3281.5189	3292.2399	3797.9164
CC(C)(O)C1=COC=C1	CC(C)(O)c1cocc1	
InChI=1S/C7H10O2/c1-7(2,8)6-3-4-9-5-6/h3-5,8H,1-2H3	InChI=1S/C7H10O2/c1-7(2,8)6-3-4-9-5-6/h3-5,8H,1-2H3
