19
gdb 130	2.8360356	1.8487155	1.6060997	1.7366	72.18	-0.23987	0.08301	0.32288	910.2584	0.160944	-422.553913	-422.547363	-422.546419	-422.584376	27.554	
C	 0.9696094508	-0.143666368	-2.3298366158	-0.234351
C	 2.0191212804	 0.7800679419	-1.6723825769	-0.064326
C	 3.3030019215	-0.061152456	-1.4936453207	-0.230229
C	 3.0182190165	-1.3287169503	-0.657788732	-0.063887
O	 1.7835472252	-1.9805443063	-0.9639971114	-0.276927
C	 0.6763888212	-1.0972992305	-1.1586105082	 0.081692
C	 0.5663071371	-0.1382617597	 0.0283757096	 0.020456
O	-0.0292508836	 1.1275490506	-0.2858075741	-0.265781
C	 1.3998656925	 1.0277512797	-0.2966590386	 0.061106
H	 0.0746021206	 0.4052811048	-2.6230442017	 0.116771
H	 1.3628400187	-0.6872529449	-3.1913092449	 0.098354
H	 2.2165240815	 1.6956700371	-2.236393919	 0.070573
H	 3.6794508145	-0.3351509442	-2.4852425042	 0.10717
H	 4.0965875261	 0.508740839	-0.9952218863	 0.097804
H	 3.7928703851	-2.0816607127	-0.8293067104	 0.109107
H	 3.0478093922	-1.0729124734	 0.4105434483	 0.095774
H	-0.1931207496	-1.7412804181	-1.3063098145	 0.080837
H	 0.4106828904	-0.5079359197	 1.0376400803	 0.100846
H	 1.9175583789	 1.6126460307	 0.4594239404	 0.095011
243.0992	254.2814	326.8774	359.8716	445.4959	475.0392	480.5721	611.2852	757.8532	772.7069	814.0786	838.9971	863.6602	875.5105	888.0275	896.529	940.0073	986.0405	1012.1003	1022.4628	1054.666	1068.9235	1083.0634	1099.9133	1130.5513	1175.7358	1205.5405	1234.4958	1252.8149	1290.2509	1294.99	1320.606	1328.5265	1334.9136	1364.6116	1375.5529	1415.3885	1425.271	1476.1714	1493.4212	1514.3321	3002.3715	3030.8442	3070.1958	3070.8235	3083.1697	3085.8576	3095.5393	3140.0776	3145.7757	3164.0004
C1C2CCOC1C1OC21	C1[C@@H]2CCO[C@H]1[C@@H]1O[C@H]21	
InChI=1S/C7H10O2/c1-2-8-5-3-4(1)6-7(5)9-6/h4-7H,1-3H2	InChI=1S/C7H10O2/c1-2-8-5-3-4(1)6-7(5)9-6/h4-7H,1-3H2/t4-,5+,6+,7-/m0/s1
