19
gdb 12	4.2859655	0.964075	0.8300358	1.9721	78.91	-0.22165	0.01179	0.23344	1400.0528	0.156973	-422.590913	-422.58205	-422.581106	-422.624982	32.987	
C	 3.3325073288	 2.4069979194	 5.3300745577	-0.384097
C	 2.7479751336	 2.5610038162	 3.9316460525	 0.148581
O	 1.6963109282	 3.5084950349	 4.028871123	-0.442671
C	 2.240811492	 1.2109016983	 3.3723337303	-0.329339
C	 1.8096313597	 1.2762017913	 1.9483067552	 0.359567
C	 2.2265476653	 0.6666007238	 0.8061362222	-0.268278
C	 1.4156199359	 1.1790052426	-0.261038786	-0.170112
C	 0.5634212776	 2.0667709582	 0.3061911142	-0.022661
O	 0.7843543685	 2.1402044704	 1.6508571067	-0.192676
H	 4.2078335409	 1.7506491855	 5.3202724084	 0.108395
H	 3.6336474685	 3.3843891916	 5.716002749	 0.125706
H	 2.5855178182	 1.9880616604	 6.0120804444	 0.120578
H	 3.5350244142	 2.9323026242	 3.2530331425	 0.064968
H	 1.2304704152	 3.5214313863	 3.1850832488	 0.290199
H	 3.036111925	 0.4622558801	 3.445403332	 0.112357
H	 1.4126098946	 0.8756633041	 4.0106681653	 0.120222
H	 3.0174672977	-0.063308199	 0.7310084362	 0.108996
H	 1.4639884287	 0.9145154982	-1.3056171166	 0.114205
H	-0.2243264226	 2.6965892835	-0.0721893558	 0.13606
51.4828	94.7749	131.7908	227.0327	296.9104	308.9278	326.4736	428.6098	462.7892	467.8848	613.6522	654.8163	735.0745	753.0641	806.8975	839.8683	852.4117	899.2844	905.2615	940.2545	955.6014	1031.7752	1055.4934	1086.8678	1115.1921	1146.5272	1180.1218	1206.1472	1234.6503	1275.1372	1306.9728	1314.873	1379.9741	1402.5638	1412.6359	1451.3269	1457.1846	1484.9546	1500.0343	1545.3272	1641.1682	2951.7497	3023.1876	3040.9821	3087.0116	3113.684	3122.7811	3251.8424	3263.2269	3288.5288	3799.3768
CC(O)CC1=CC=CO1	C[C@H](O)Cc1ccco1	
InChI=1S/C7H10O2/c1-6(8)5-7-3-2-4-9-7/h2-4,6,8H,5H2,1H3	InChI=1S/C7H10O2/c1-6(8)5-7-3-2-4-9-7/h2-4,6,8H,5H2,1H3/t6-/m0/s1
