19
gdb 162	3.2087154	1.7805912	1.4581316	1.1339	74.11	-0.24676	0.09057	0.33733	940.1729	0.160264	-422.539655	-422.532924	-422.531979	-422.570608	27.616	
C	-1.8976704329	 0.8097850043	-1.596235254	-0.287821
C	-1.7337674583	 0.4546520231	-3.0958060091	-0.031151
C	-1.7035630796	-1.0559543721	-2.6290101438	-0.308947
C	-0.9469756041	-0.4094081829	-1.4471927018	 0.44669
O	-0.5282287216	-0.8935858819	-0.2065437583	-0.343633
C	 0.7093474505	-0.1988863646	 0.0596449379	-0.009864
O	 1.0028452349	 0.6650933705	-1.0303267739	-0.284079
C	 0.3379801839	 0.0411006675	-2.1226072573	 0.107632
C	-0.2379122594	 0.8432386238	-3.3063964116	-0.271759
H	-1.5451842752	 1.7855996742	-1.2542356536	 0.100375
H	-2.8947948824	 0.5949234674	-1.2066701198	 0.099559
H	-2.4535875088	 0.7837124544	-3.8433874797	 0.071392
H	-2.7038116592	-1.4149896017	-2.3806675074	 0.109419
H	-1.1714493536	-1.7893506395	-3.2415183065	 0.096505
H	 0.617825426	 0.4130524849	 0.9632543978	 0.116256
H	 1.4950190631	-0.9583883476	 0.189989117	 0.100564
H	 0.9311789435	-0.8204807721	-2.4645732185	 0.070286
H	-0.0849167892	 1.9209535569	-3.2071425609	 0.117857
H	 0.1768164925	 0.5203651353	-4.2643891265	 0.100719
112.9265	216.232	341.8603	402.6922	415.5463	495.7331	554.981	625.6946	683.2737	748.4177	808.125	842.7121	858.4949	882.3055	923.9395	939.987	962.6239	997.0361	1008.6071	1046.2456	1061.5938	1082.229	1084.4155	1121.2057	1134.1271	1146.3278	1188.9378	1192.6328	1212.8053	1239.0618	1243.2302	1265.6089	1281.8086	1323.8898	1338.5315	1398.51	1431.7931	1483.5829	1490.7092	1525.117	1539.642	2981.9648	2988.2169	3059.2317	3065.0369	3067.644	3069.3357	3114.2535	3127.6916	3129.6332	3134.0282
C1C2CC11OCOC1C2	C1[C@@H]2C[C@@]31OCO[C@@H]3C2	
InChI=1S/C7H10O2/c1-5-2-7(3-5)6(1)8-4-9-7/h5-6H,1-4H2	InChI=1S/C7H10O2/c1-5-2-7(3-5)6(1)8-4-9-7/h5-6H,1-4H2/t5-,6-,7-/m1/s1
