19
gdb 51	3.0597258	1.0012734	0.7945048	1.2111	79.32	-0.19819	0.02489	0.22308	1464.7748	0.156349	-422.583243	-422.573902	-422.572958	-422.618144	33.836	
C	 1.5462300449	-0.9571163937	 0.9549067281	-0.381903
C	 1.1116470712	-0.0963622793	-0.2328745662	-0.152599
C	 1.5090392682	 1.3847536364	-0.0731526292	-0.320611
C	 1.1271659077	 2.2457945682	-1.224417204	 0.231736
C	 0.2491397428	 3.2799201752	-1.3842731066	 0.207405
O	-0.5743217799	 3.8692178216	-0.4736974319	-0.44072
C	 0.3205385788	 3.696934764	-2.7522702789	-0.250843
C	 1.2392381029	 2.8824120056	-3.3303668527	-0.010172
O	 1.7396166271	 2.0003961824	-2.431515914	-0.185243
H	 1.2587938617	-2.0033733231	 0.8135288884	 0.115397
H	 2.6330947525	-0.9257280333	 1.0905303886	 0.116475
H	 1.0876743973	-0.6099536079	 1.8880541915	 0.111212
H	 1.559689583	-0.478317264	-1.1569314557	 0.114811
H	 0.0254755937	-0.1609637918	-0.3690721487	 0.099705
H	 1.0427794493	 1.7904510917	 0.8356229412	 0.085753
H	 2.5931574841	 1.4470883758	 0.097625162	 0.117286
H	-0.4533778106	 3.4430609195	 0.3809383472	 0.29555
H	-0.2401335383	 4.4927885296	-3.2151539166	 0.115725
H	 1.6326324534	 2.8077952632	-4.3307772024	 0.131036
47.919	84.3291	106.3148	237.2619	250.505	263.0077	292.5064	315.5642	365.6613	475.9473	621.2106	653.4204	679.633	736.6646	744.383	772.971	814.9175	862.298	890.7573	908.5246	1031.0287	1042.6486	1069.0786	1109.0258	1116.2701	1187.4418	1219.1353	1267.5022	1269.6316	1316.3919	1321.3722	1341.0686	1383.6215	1412.7973	1467.0996	1491.7984	1499.165	1500.4634	1509.3693	1549.4414	1679.5111	3000.0727	3028.1952	3030.7472	3037.0445	3070.9009	3097.5474	3104.3706	3261.2395	3284.4753	3823.8981
CCCC1=C(O)C=CO1	CCCc1c(O)cco1	
InChI=1S/C7H10O2/c1-2-3-7-6(8)4-5-9-7/h4-5,8H,2-3H2,1H3	InChI=1S/C7H10O2/c1-2-3-7-6(8)4-5-9-7/h4-5,8H,2-3H2,1H3
