19
gdb 154	3.1360885	1.6659015	1.3510493	2.1786	73.77	-0.2356	0.06249	0.29809	985.3435	0.159213	-422.483682	-422.476558	-422.475614	-422.515168	28.427	
C	-2.2166487334	-0.7137250394	 0.1516697861	-0.224483
C	-1.2692270448	-0.9814693933	 1.351879928	-0.070517
O	-0.3897625019	 0.0973044409	 1.6313393217	-0.26067
C	 0.5780665501	 0.4047135431	 0.6692108371	 0.122199
C	 0.4404462341	 0.0452841444	-0.8441973635	-0.024888
O	 1.3813918878	 1.1450956353	-1.1175112778	-0.306194
C	 0.4078666551	 1.7065168617	-0.155823103	 0.006528
C	-0.7409722724	 1.0511842826	-0.9760014159	 0.015726
C	-2.1175427042	 0.7289537372	-0.3706003388	-0.240653
H	-1.9879514754	-1.4011033935	-0.6709589729	 0.103208
H	-3.248407958	-0.9281442712	 0.4499784423	 0.100519
H	-1.8462662496	-1.1051706109	 2.2723286914	 0.113264
H	-0.699218263	-1.9089726025	 1.197243267	 0.095563
H	 1.588776645	 0.2558544721	 1.061422388	 0.088864
H	 0.6183434369	-0.9006177599	-1.357226218	 0.093684
H	 0.5392021762	 2.7446050772	 0.1505463392	 0.092611
H	-0.7972201105	 1.4736005051	-1.9819363003	 0.082696
H	-2.3517769886	 1.4327673038	 0.4346496389	 0.113827
H	-2.8834796034	 0.869920427	-1.1398362096	 0.098718
95.8959	202.5914	259.2804	309.3277	365.226	459.0215	543.5336	604.3938	638.194	740.6952	796.2534	834.3349	866.5306	888.7083	893.6674	909.8315	942.2892	970.1889	983.1046	1023.9366	1047.4285	1100.5651	1119.6031	1141.396	1147.5605	1190.6368	1203.5346	1208.5535	1238.9398	1256.0153	1260.6024	1289.0946	1309.6627	1336.1041	1362.2458	1371.6145	1397.69	1414.9267	1486.9135	1495.3586	1511.8602	2996.8201	3034.8591	3044.1729	3065.3193	3069.2196	3078.9832	3092.0713	3093.3415	3109.1999	3120.4225
C1COC2C3OC2C3C1	C1CO[C@H]2[C@@H]3O[C@H]2[C@@H]3C1	
InChI=1S/C7H10O2/c1-2-4-5-7(8-3-1)6(4)9-5/h4-7H,1-3H2	InChI=1S/C7H10O2/c1-2-4-5-7(8-3-1)6(4)9-5/h4-7H,1-3H2/t4-,5-,6+,7+
