19
gdb 129	2.9697328	1.8520446	1.6156331	2.2242	72.72	-0.24831	0.08755	0.33586	909.7093	0.161066	-422.564067	-422.557552	-422.556608	-422.594487	27.532	
C	-0.3335245576	 1.9101159983	-1.268523647	-0.316823
C	 0.3043322539	 1.5132871525	 0.0351997639	-0.043943
C	 0.2874200982	 0.5436103007	-1.1286868093	-0.081801
C	-0.6423052641	-0.5694699645	-0.658296598	 0.191237
O	-1.5111416042	 0.0754437106	 0.2586437756	-0.262251
C	-0.6164056141	 0.8644689853	 1.0648249669	 0.060274
C	 0.1401184017	-0.1264652709	 1.9624176689	-0.222389
C	 0.8656986581	-1.1601366558	 1.0771109153	-0.07365
O	 0.0674330756	-1.6097612983	-0.0213380342	-0.263875
H	-1.4140137957	 1.9865397762	-1.3197405491	 0.12658
H	 0.207916135	 2.6267988526	-1.8761620586	 0.111713
H	 1.2174787471	 1.9920312198	 0.3683239231	 0.090048
H	 1.178413657	 0.2770609329	-1.6832203534	 0.097642
H	-1.2537951707	-1.0455034174	-1.4272690244	 0.091038
H	-1.2260316274	 1.567715835	 1.6385895246	 0.080252
H	 0.8666210939	 0.3799336795	 2.6082465229	 0.095623
H	-0.5930747138	-0.625037971	 2.6037535983	 0.113531
H	 1.8083566091	-0.736078409	 0.7048760691	 0.09643
H	 1.1126514378	-2.0582206366	 1.6494947854	 0.110362
242.2962	247.8803	319.8736	363.1105	461.2977	480.5671	528.2134	654.0367	737.7638	761.2328	822.3661	840.6888	848.8811	883.7095	901.6129	911.7636	963.3881	965.9617	1007.3433	1018.5443	1053.0244	1077.1501	1085.0457	1092.0018	1106.7923	1115.3167	1137.4566	1192.9879	1227.67	1268.2724	1287.7409	1317.9712	1327.9696	1345.6613	1362.09	1368.1279	1396.1684	1417.7011	1472.1687	1476.2914	1512.0533	3008.6656	3041.4579	3075.494	3084.5028	3096.9502	3103.9171	3135.4065	3181.9357	3194.1573	3224.4816
C1C2C1C1OC2CCO1	C1[C@@H]2[C@H]1[C@@H]1O[C@H]2CCO1	
InChI=1S/C7H10O2/c1-2-8-7-5-3-4(5)6(1)9-7/h4-7H,1-3H2	InChI=1S/C7H10O2/c1-2-8-7-5-3-4(5)6(1)9-7/h4-7H,1-3H2/t4-,5+,6+,7+/m1/s1
