19
gdb 147	2.64171	1.9912995	1.4512749	2.1762	73.89	-0.24128	0.08395	0.32523	941.9294	0.160189	-422.522841	-422.515964	-422.51502	-422.553769	28.13	
C	 1.6233530095	-2.476349649	 1.4007917052	-0.254855
C	 3.1246519973	-2.360792229	 1.111681074	-0.088421
C	 3.3451521806	-1.7613548577	-0.2384997776	 0.111225
O	 2.5235458984	-0.7368957537	-0.7326701468	-0.245055
C	 1.6169758008	-1.0853048661	-1.7492794344	 0.013262
O	 0.4167281583	-1.6180105591	-1.2658449732	-0.225723
C	 0.4514193689	-3.0007375684	-0.9440846277	-0.107188
C	 1.4624971535	-3.3807550746	 0.1330709337	-0.010042
C	 2.9584018958	-3.2063332803	-0.1782010074	-0.146111
H	 1.3959806076	-3.0060945529	 2.3269502295	 0.100944
H	 1.0792485501	-1.5295405508	 1.3758072264	 0.121842
H	 3.9121188362	-2.3942845687	 1.8548106442	 0.086615
H	 4.3930089027	-1.5978730904	-0.4859315007	 0.093309
H	 1.3543377307	-0.1483856477	-2.246340588	 0.11252
H	 2.0887651019	-1.7807297028	-2.463176626	 0.07922
H	-0.5644014921	-3.2396219753	-0.6114107465	 0.108555
H	 0.6536648434	-3.5934701031	-1.8528475277	 0.087797
H	 1.2635682575	-4.4157732043	 0.4298502931	 0.079569
H	 3.5970463189	-3.980946796	-0.5884836001	 0.082537
173.9202	204.2236	285.1797	342.8632	402.8547	457.1945	525.9266	614.9546	669.3094	723.4606	744.1056	789.3085	845.9058	898.3647	912.4645	951.7679	972.5355	991.2867	1020.9561	1042.4178	1060.2222	1078.2802	1085.6157	1113.775	1144.0065	1152.4346	1191.6941	1232.9193	1241.8525	1261.6112	1287.1972	1312.9313	1340.3171	1349.0429	1358.1994	1408.1628	1420.8058	1452.5562	1483.4618	1485.584	1500.8157	2958.9259	2967.6783	3051.2288	3070.7148	3075.4099	3103.3749	3117.3933	3130.3576	3164.7373	3186.1359
C1C2C3OCOCC1C23	C1[C@@H]2[C@@H]3OCOC[C@H]1[C@H]23	
InChI=1S/C7H10O2/c1-4-2-8-3-9-7-5(1)6(4)7/h4-7H,1-3H2	InChI=1S/C7H10O2/c1-4-2-8-3-9-7-5(1)6(4)7/h4-7H,1-3H2/t4-,5-,6+,7-/m0/s1
