19
gdb 155	4.7361118	1.0332915	0.9244436	0.2483	75.35	-0.23256	0.06543	0.29799	1288.6135	0.157244	-422.486276	-422.478248	-422.477304	-422.519803	29.768	
C	-0.077902232	-0.7195139337	 0.027782049	-0.306893
C	 1.3344074138	-0.2580511084	-0.130973778	 0.108033
O	 1.746604069	-0.3434408272	-1.4998495146	-0.306326
C	 0.7391124763	 0.6467149581	-1.8705767238	 0.105414
C	 0.2025271489	 0.6933865684	-0.4433116713	-0.129884
C	 1.416914198	 1.9166377499	-2.3425599526	 0.147257
C	 1.9862385686	 1.9169945897	-3.7771787309	-0.301003
C	 0.9384755304	 3.0183712256	-4.0380804896	-0.060412
O	 0.4436055987	 2.932753875	-2.682348597	-0.299872
H	-0.4774548729	-1.464845977	-0.6547478806	 0.115999
H	-0.4370129223	-0.7891625499	 1.0501359392	 0.116071
H	 2.1031765418	-0.2771626575	 0.6325643004	 0.103415
H	 0.0569959299	 0.2679337603	-2.6430453336	 0.078498
H	-0.1520768484	 1.5793830701	 0.0646540895	 0.111236
H	 2.1119615926	 2.2672935489	-1.5685982778	 0.076773
H	 3.0286668845	 2.2225827645	-3.8683762177	 0.114808
H	 1.836714965	 0.9856473168	-4.3264217305	 0.117709
H	 1.343041261	 4.0134868792	-4.2593038253	 0.103905
H	 0.1592169571	 2.7829265073	-4.7725912146	 0.105273
62.6049	73.9044	147.3711	167.8441	318.7919	415.7947	427.0281	490.4957	756.145	776.1388	789.372	825.3064	861.2716	889.9187	936.5992	947.7741	960.2399	981.4462	992.9829	1022.5403	1033.0555	1036.7989	1055.7582	1064.5681	1085.9018	1098.7632	1159.9578	1185.4307	1205.664	1215.7366	1234.5787	1257.1512	1272.1187	1290.3274	1310.7899	1352.5457	1363.0169	1420.1716	1473.9358	1490.4938	1532.3642	3013.7755	3020.1757	3030.7337	3058.302	3084.0162	3114.1673	3139.9232	3181.497	3204.5273	3215.1017
C1C2OC(C12)C1CCO1	C1[C@H]2O[C@@H]([C@@H]12)[C@H]1CCO1	
InChI=1S/C7H10O2/c1-2-8-5(1)7-4-3-6(4)9-7/h4-7H,1-3H2	InChI=1S/C7H10O2/c1-2-8-5(1)7-4-3-6(4)9-7/h4-7H,1-3H2/t4-,5+,6+,7-/m0/s1
