19
gdb 265	3.4928566	1.6374664	1.4055712	2.3119	73.66	-0.24538	0.08272	0.3281	965.417	0.160098	-422.538371	-422.531522	-422.530578	-422.569426	27.838	
C	 1.1711306338	 3.8977041666	 0.6799810388	-0.215161
C	 0.4407298649	 3.4314735886	-0.6319341924	-0.306376
C	 0.8526567723	 1.9602598134	-0.5375832232	 0.423672
C	 0.5144086897	 0.76707021	-1.3913342458	-0.178395
O	 0.4146806892	-0.3325106629	-0.480687656	-0.274004
C	 0.8862029188	 0.0495926896	 0.8241267227	-0.100976
C	 0.6233483685	 1.5512327129	 0.936502757	-0.065606
C	 1.8051057878	 2.5353086422	 1.0651102025	 0.046276
O	 2.2923908866	 2.0735886394	-0.2291672879	-0.340302
H	 1.9402813691	 4.6486857355	 0.4899944847	 0.111393
H	 0.4846245104	 4.2839908593	 1.4385822745	 0.101416
H	-0.6425564842	 3.5736521416	-0.5999208009	 0.105007
H	 0.8353903469	 3.9159775471	-1.5272508634	 0.113353
H	-0.4467306772	 0.8855572472	-1.9070336713	 0.103441
H	 1.2964230854	 0.584682117	-2.1400334461	 0.111544
H	 0.3230886337	-0.5415863774	 1.5509809863	 0.103788
H	 1.9535861102	-0.1807752413	 0.9260582346	 0.106531
H	-0.3273674696	 1.8069318843	 1.4111462633	 0.073975
H	 2.5474046035	 2.5076857567	 1.8635334429	 0.080422
115.44	245.8628	283.3609	324.3787	402.3726	453.431	584.6904	657.9111	733.7857	740.139	806.4651	832.7484	855.3986	887.9244	898.6302	916.1624	935.8492	978.9355	981.5571	1039.0804	1056.5007	1066.2256	1095.4342	1112.4603	1164.7697	1181.6571	1199.1052	1221.801	1239.323	1245.4689	1260.9636	1295.6392	1297.5804	1312.0013	1360.9059	1379.4428	1399.9016	1480.3983	1499.9491	1501.6963	1511.0425	3013.8062	3030.0423	3053.0939	3063.3503	3070.1827	3075.7721	3097.0732	3111.2914	3116.748	3128.1742
C1CC23COCC2C1O3	C1C[C@]23COC[C@H]2[C@H]1O3	
InChI=1S/C7H10O2/c1-2-7-4-8-3-5(7)6(1)9-7/h5-6H,1-4H2	InChI=1S/C7H10O2/c1-2-7-4-8-3-5(7)6(1)9-7/h5-6H,1-4H2/t5-,6-,7-/m0/s1
