19
gdb 330	2.4381917	1.961393	1.3641073	2.3503	74.21	-0.2376	0.08149	0.31909	982.0229	0.159159	-422.512875	-422.505413	-422.504469	-422.544578	29.38	
C	-0.0305456896	 1.4083996507	 0.0919752519	-0.31105
C	 1.3373408828	 0.7888602856	-0.100912972	-0.070294
C	 2.03642237	 0.9836404358	-1.4304628562	-0.063606
O	 2.6730926891	-0.1693952841	-1.9808904753	-0.264696
C	 2.0813434057	-1.4393698634	-1.819784739	-0.106173
C	 0.5713674797	-1.5674505898	-2.039771444	 0.031487
O	-0.1639163186	-0.4213058496	-2.4750323874	-0.244477
C	-0.3874136585	-0.9018279328	-1.1432336039	 0.022926
C	 0.1077166063	-0.0885664387	 0.0096387659	-0.024977
H	-0.277180656	 1.8530425651	 1.0494506983	 0.114298
H	-0.4585492079	 1.9151011992	-0.7668713315	 0.128566
H	 1.9910905953	 0.7756300897	 0.7663535492	 0.090165
H	 1.3298864826	 1.3857651035	-2.1610283288	 0.11458
H	 2.8462095183	 1.7114855569	-1.3066116637	 0.100356
H	 2.5957594558	-2.0765471771	-2.5467382823	 0.113061
H	 2.3004150592	-1.8535805706	-0.8206874778	 0.093514
H	 0.2677719628	-2.4988006262	-2.5212491297	 0.093487
H	-1.3704256985	-1.3548074728	-1.0049544882	 0.091629
H	 0.0035827315	-0.6232760014	 0.9512283743	 0.091204
117.4742	197.0293	219.3769	273.6405	319.6092	393.9717	479.3894	512.0453	662.0926	674.7833	762.7976	776.2781	835.4643	848.7913	902.3305	910.8918	952.6638	968.7423	993.586	1046.3401	1060.1298	1072.1233	1097.2696	1129.5672	1132.5794	1137.7888	1178.5795	1183.0622	1226.395	1266.8601	1299.119	1319.2309	1362.2522	1389.7881	1409.3235	1415.9766	1436.6121	1470.5095	1488.5478	1499.6669	1507.1357	2956.4287	3041.1052	3063.0054	3084.4989	3088.4655	3100.5304	3130.4765	3133.7011	3148.3094	3221.6276
C1C2COCC3OC3C12	C1[C@@H]2COC[C@@H]3O[C@@H]3[C@H]12	
InChI=1S/C7H10O2/c1-4-2-8-3-6-7(9-6)5(1)4/h4-7H,1-3H2	InChI=1S/C7H10O2/c1-4-2-8-3-6-7(9-6)5(1)4/h4-7H,1-3H2/t4-,5-,6+,7-/m1/s1
