19
gdb 127	2.914969	1.8611027	1.6442261	1.8947	72.61	-0.2499	0.08998	0.33988	900.7488	0.161415	-422.554052	-422.547629	-422.546684	-422.584349	27.407	
C	 1.3820518431	-0.3939829001	 0.4941783593	-0.330918
C	 0.7190048834	 0.0691050854	-0.7775397465	-0.04518
C	 0.7737586533	 0.9838055848	 0.4391616483	-0.04518
C	-0.6790371011	 1.1689960043	 0.869597777	 0.104587
C	-1.3713727867	-0.1295366544	 0.4192805366	-0.256671
C	-0.7627513161	-0.2295098433	-0.9906435237	 0.104587
O	-1.3678354507	 0.8120886374	-1.7768828026	-0.277408
C	-1.1054014178	 2.1065649185	-1.2737612483	 0.02877
O	-1.2823750363	 2.2397680772	 0.1221657597	-0.277408
H	 0.9409490223	-1.1754932543	 1.101557662	 0.115916
H	 2.4662074097	-0.4276674623	 0.4707125649	 0.117072
H	 1.329194553	 0.2509365464	-1.6547433456	 0.095032
H	 1.4248983436	 1.8497298504	 0.4719130697	 0.095032
H	-0.8177761744	 1.4283197048	 1.9212595992	 0.077932
H	-1.135382291	-0.9866636699	 1.0530373297	 0.100555
H	-2.4538104279	-0.0074923317	 0.376240994	 0.11388
H	-0.9727259445	-1.1601958378	-1.521891172	 0.077932
H	-0.0892218777	 2.4200651428	-1.555175569	 0.086255
H	-1.8340051142	 2.7729499618	-1.7419519225	 0.115216
249.9277	287.8348	355.7991	381.4531	448.9156	467.273	513.7439	627.5563	716.2388	786.6668	843.1707	848.8991	853.9917	880.3169	885.3702	926.9488	951.7606	995.7579	1009.4531	1027.7404	1051.6429	1066.971	1084.4522	1089.6046	1119.7592	1136.947	1164.4325	1180.9127	1195.6864	1248.8963	1287.4295	1299.5885	1316.5142	1339.108	1351.0163	1372.1212	1387.748	1443.7422	1475.5345	1509.935	1521.4594	2986.1676	3079.1225	3090.0047	3094.8283	3099.3032	3136.3767	3141.3444	3174.0965	3182.3964	3217.0155
C1C2C1C1CC2OCO1	C1[C@@H]2[C@H]1[C@@H]1C[C@H]2OCO1	
InChI=1S/C7H10O2/c1-4-5(1)7-2-6(4)8-3-9-7/h4-7H,1-3H2	InChI=1S/C7H10O2/c1-4-5(1)7-2-6(4)8-3-9-7/h4-7H,1-3H2/t4-,5+,6-,7+
