19
gdb 160	3.2128123	1.7317358	1.4316466	1.8691	73.93	-0.24576	0.07741	0.32317	947.4341	0.160219	-422.527778	-422.520983	-422.520038	-422.558982	27.67	
C	-1.2269575216	 2.4462060623	 0.201250109	-0.329507
C	-1.4045756251	 2.2125070207	-1.3375288032	 0.102221
C	-1.2752691034	 0.7066846157	-1.0396476645	-0.268555
C	-0.2392390214	 1.2633026773	-0.0047146959	 0.281095
C	 0.6506619665	 0.3842130335	 0.8320251282	-0.198294
O	 1.7109752236	-0.0046914988	-0.0699629903	-0.282212
C	 1.6950642441	 0.7793156135	-1.2777918467	-0.113344
C	 0.7609175911	 1.9435333037	-0.9496153191	 0.105031
O	-0.1169394113	 2.526133274	-1.9203448395	-0.298217
H	-0.8173812982	 3.4053222634	 0.5273980487	 0.105439
H	-2.1270034479	 2.1918285841	 0.7635298938	 0.106568
H	-2.1995419249	 2.6607680789	-1.930498397	 0.085468
H	-2.1487603017	 0.277325902	-0.5448827851	 0.101403
H	-0.932197624	 0.065704386	-1.8530598863	 0.109027
H	 1.0753013643	 0.9224360396	 1.6919718396	 0.099561
H	 0.1629344264	-0.5241907169	 1.2003712969	 0.106788
H	 2.7225174168	 1.0858810094	-1.4961774361	 0.104459
H	 1.3215607219	 0.1859266881	-2.1224710796	 0.102293
H	 1.3239195347	 2.7412723435	-0.4478566028	 0.080777
81.7599	238.4786	306.3861	373.5113	472.7332	505.9819	539.0899	619.3334	647.0646	754.4949	816.0193	839.9329	885.4482	892.3646	907.3089	939.5563	961.1956	984.1335	1008.203	1029.3481	1035.9222	1068.1688	1108.9985	1122.0854	1134.0759	1168.9876	1177.4056	1206.7312	1225.1896	1227.1792	1265.2397	1269.7217	1299.7035	1329.6984	1347.7629	1390.3867	1403.3649	1477.982	1513.5192	1520.3419	1531.9106	2996.6413	3013.6941	3021.2923	3066.0436	3068.208	3077.2068	3078.8536	3135.5869	3141.454	3144.4345
C1C2CC11COCC1O2	C1[C@@H]2C[C@@]31COC[C@H]3O2	
InChI=1S/C7H10O2/c1-5-2-7(1)4-8-3-6(7)9-5/h5-6H,1-4H2	InChI=1S/C7H10O2/c1-5-2-7(1)4-8-3-6(7)9-5/h5-6H,1-4H2/t5-,6-,7+/m1/s1
