19
gdb 380	3.2323853	1.5800168	1.4870244	1.5973	73.71	-0.23249	0.08728	0.31977	975.1866	0.159167	-422.553771	-422.546689	-422.545745	-422.585045	28.87	
C	 0.7146703128	 1.3675850637	-0.0611605261	-0.345639
C	 1.6252805957	 0.1484120493	 0.0513983665	-0.342718
C	 0.140429777	-0.0017456935	 0.0952925898	 0.489922
O	-0.5357218854	-0.5865153463	-1.0149213973	-0.315914
C	-1.6396956193	-1.2722272262	-0.416449909	 0.181096
C	-1.1244323929	-2.5783912813	 0.2173918034	-0.233792
C	-0.4156173409	-2.0029902027	 1.4823453413	-0.224677
C	-0.675614622	-0.4920165459	 1.2859270901	-0.051091
O	-1.9934619712	-0.4801361989	 0.7010286202	-0.249635
H	 0.663747101	 2.0570076625	 0.7753202876	 0.113385
H	 0.6201371008	 1.8267632322	-1.0388504644	 0.125753
H	 2.1294816077	-0.182134841	-0.84973781	 0.125406
H	 2.1939279599	 0.0090949147	 0.9658703554	 0.112377
H	-2.4593832873	-1.3374285801	-1.1307784435	 0.092039
H	-1.9543336703	-3.2402091466	 0.4771622668	 0.106235
H	-0.4503383155	-3.1076282551	-0.4580988325	 0.11235
H	-0.8843702274	-2.3551414133	 2.4035630188	 0.105874
H	 0.6497642459	-2.238066065	 1.5229418322	 0.110042
H	-0.6458303985	 0.1355577535	 2.1749817307	 0.088987
110.6803	216.2636	264.6334	306.9703	410.1349	460.0547	542.871	610.421	698.3859	760.2012	816.4117	823.5138	834.6391	855.0205	886.9967	900.0584	930.3892	941.9691	979.3676	982.4288	998.5416	1020.0821	1042.1875	1051.5931	1071.778	1094.1948	1146.7827	1186.1285	1221.13	1231.3118	1246.6582	1260.9093	1285.2381	1316.8349	1340.4027	1356.6842	1398.4628	1451.0768	1476.8602	1497.6048	1505.4991	3068.455	3077.9983	3116.475	3125.7964	3130.258	3133.848	3137.0347	3142.0096	3211.8105	3226.2871
C1CC11OC2CCC1O2	C1CC21O[C@H]1CC[C@@H]2O1	
InChI=1S/C7H10O2/c1-2-6-8-5(1)7(9-6)3-4-7/h5-6H,1-4H2	InChI=1S/C7H10O2/c1-2-6-8-5(1)7(9-6)3-4-7/h5-6H,1-4H2/t5-,6-/m0/s1
