19
gdb 140	2.4438696	2.1702314	1.6997729	2.028	72.92	-0.24313	0.0764	0.31953	887.2554	0.161277	-422.554569	-422.548052	-422.547108	-422.585051	27.404	
C	-0.932347425	 1.3359256786	 0.7396650862	-0.265182
C	 0.0936328458	 1.5025449877	 1.8523225951	-0.105933
C	 1.4692294442	 1.2120137264	 1.2464592034	-0.088283
C	 1.2324087117	 0.7103309093	-0.1737093841	-0.228827
C	-0.2743743731	 0.3555750696	-0.2487692262	 0.093867
O	-0.5203592099	-1.0181549523	 0.0662817981	-0.259817
C	-0.5258218037	-1.3447965209	 1.4288957272	 0.011375
O	 0.6665146399	-1.0310118847	 2.0972879676	-0.245938
C	 0.924256792	 0.3282392097	 2.3307481431	 0.106446
H	-1.9211346336	 1.0009729023	 1.0655937603	 0.111121
H	-1.0689293031	 2.3029807302	 0.2412197029	 0.104476
H	-0.0508709335	 2.3130412919	 2.5589753548	 0.08512
H	 2.3356564302	 1.8328147378	 1.4466955064	 0.080806
H	 1.4575451797	 1.5075373599	-0.8912493027	 0.098641
H	 1.8403680674	-0.160708759	-0.4335319024	 0.117132
H	-0.6610804034	 0.4709003682	-1.2636760952	 0.086461
H	-1.3738548076	-0.8736264878	 1.9474015587	 0.086269
H	-0.6249735554	-2.431582203	 1.4721379399	 0.11512
H	 1.3590948574	 0.4529408063	 3.318073557	 0.097146
171.2447	290.068	355.1926	388.1373	446.6074	498.8164	525.0279	646.2258	716.9139	753.1524	764.2908	799.1268	805.9062	878.2283	897.9994	930.9788	981.5961	997.9377	1034.2192	1047.4776	1052.7035	1086.0599	1099.7231	1112.3206	1116.1687	1181.0269	1188.5252	1224.6511	1240.5829	1262.6404	1311.668	1315.3431	1319.452	1352.1618	1368.1947	1393.5685	1421.5703	1448.3702	1471.3959	1492.2596	1520.5644	2991.8285	3037.3578	3043.005	3087.9971	3088.2639	3098.9278	3108.7728	3147.44	3158.7256	3170.9244
C1C2C3CC1OCOC23	C1[C@@H]2[C@@H]3C[C@H]1OCO[C@H]23	
InChI=1S/C7H10O2/c1-4-2-6-5(1)7(6)9-3-8-4/h4-7H,1-3H2	InChI=1S/C7H10O2/c1-4-2-6-5(1)7(6)9-3-8-4/h4-7H,1-3H2/t4-,5+,6-,7+
