19
gdb 163	3.2259195	1.7414032	1.421974	2.5216	73.88	-0.24613	0.08253	0.32866	951.6006	0.160123	-422.539266	-422.532462	-422.531518	-422.570246	27.81	
C	 1.4043527546	 0.0756104394	-0.3555360983	-0.320534
C	 1.0805386286	 1.5747372532	-0.0942434513	 0.074591
C	 0.9335314304	 2.2226179462	-1.4968899541	-0.262346
C	 0.0876290805	 1.088058712	-2.1359195456	-0.024454
C	-1.3925950294	 1.2166215897	-2.4800704594	-0.098894
O	-1.9320790695	-0.0908421726	-2.2222991979	-0.275801
C	-1.1872659942	-0.7371988645	-1.1779732174	-0.183189
C	-0.0350404444	 0.186660296	-0.880879183	 0.40065
O	-0.2975893089	 1.1767217886	 0.1705378124	-0.324867
H	 2.2008800355	-0.1945353312	-1.0541157746	 0.097817
H	 1.4788823965	-0.4804782373	 0.5795410491	 0.115261
H	 1.5414586103	 2.1464274527	 0.7114614001	 0.081816
H	 0.4034551526	 3.1754116818	-1.4238542732	 0.113315
H	 1.8851071763	 2.3900713816	-2.0079680727	 0.099875
H	 0.6149253849	 0.5735962918	-2.9448444318	 0.079102
H	-1.8764547409	 1.9693582713	-1.8423885668	 0.102399
H	-1.6002619267	 1.4488475207	-3.5277190289	 0.103899
H	-1.8159137279	-0.8802203332	-0.2908452262	 0.114642
H	-0.8511219984	-1.7184885663	-1.5345520103	 0.106719
127.2258	213.6225	304.9776	378.3462	399.8415	479.4006	562.6443	646.3092	656.2998	780.0522	795.7893	829.4696	871.7382	883.7779	899.8516	912.2429	966.7495	975.724	1002.3326	1025.1757	1047.6852	1075.0842	1088.1267	1113.0464	1158.6533	1179.4264	1193.1482	1218.5002	1232.9963	1251.1914	1273.2649	1290.6327	1298.7143	1316.9397	1336.0863	1388.0944	1397.3505	1481.0854	1493.7548	1501.9405	1515.5038	3009.7657	3023.4347	3059.1254	3062.1365	3063.9549	3069.286	3095.791	3115.6477	3122.3084	3143.1867
C1C2CC3COCC13O2	C1[C@H]2C[C@@H]3COC[C@@]13O2	
InChI=1S/C7H10O2/c1-5-3-8-4-7(5)2-6(1)9-7/h5-6H,1-4H2	InChI=1S/C7H10O2/c1-5-3-8-4-7(5)2-6(1)9-7/h5-6H,1-4H2/t5-,6-,7+/m1/s1
