19
gdb 84	3.988966	0.9710546	0.8276645	1.8409	77.37	-0.25862	0.05255	0.31117	1379.4607	0.15706	-422.527613	-422.518957	-422.518012	-422.561189	32.498	
C	-0.0140819487	-0.0119844642	 0.3774222029	-0.438023
C	 1.17280537	 0.0378699944	 0.198021615	 0.30758
C	 2.615065383	 0.0767755962	-0.0074437798	-0.378811
C	 3.0977106096	-0.8486872492	-1.1306667713	 0.129715
C	 4.6261085624	-0.9358909229	-1.2182145703	-0.216325
C	 5.007499721	-1.7089158194	-2.4842629281	-0.097168
O	 4.3711868761	-1.1458101645	-3.622958584	-0.231824
C	 2.9792461174	-1.1128823393	-3.4540193078	 0.017502
O	 2.581528274	-0.3359909639	-2.3549741351	-0.245558
H	-1.0641183378	-0.0463224741	 0.5300541475	 0.194444
H	 2.9336897689	 1.0982868347	-0.2483574968	 0.140863
H	 3.128974373	-0.2060312083	 0.9199224018	 0.128409
H	 2.6872101164	-1.8594665072	-0.9639284577	 0.076436
H	 5.0421200205	 0.0765479575	-1.2703254073	 0.112994
H	 5.0364694102	-1.4315480841	-0.3311030355	 0.099205
H	 6.0829241689	-1.6698448863	-2.6745786107	 0.114516
H	 4.7173051205	-2.7686300649	-2.3788936468	 0.089969
H	 2.5572818071	-0.6451708396	-4.3453770341	 0.120226
H	 2.5913776377	-2.1442232648	-3.3410960321	 0.07585
67.8326	97.3544	172.4878	259.7217	289.5814	342.3653	369.8231	383.2147	487.0144	497.0557	551.4599	615.417	642.0725	678.0729	822.2877	870.5613	912.5112	945.4647	955.2408	1001.8365	1059.8011	1066.5749	1078.8792	1115.5999	1156.7844	1191.0974	1231.3156	1251.8947	1272.1043	1305.6062	1330.8331	1356.8571	1382.642	1396.9289	1404.7226	1448.2012	1455.5292	1470.0073	1497.806	1509.9129	2243.2983	2914.2662	2956.7155	2964.925	3027.031	3038.0767	3065.8149	3087.7123	3096.4474	3117.2761	3507.0043
C#CCC1CCOCO1	C#CC[C@@H]1CCOCO1	
InChI=1S/C7H10O2/c1-2-3-7-4-5-8-6-9-7/h1,7H,3-6H2	InChI=1S/C7H10O2/c1-2-3-7-4-5-8-6-9-7/h1,7H,3-6H2/t7-/m1/s1
