19
gdb 372	2.6358574	1.7725008	1.579904	1.0856	73.68	-0.23834	0.08491	0.32325	947.0563	0.159442	-422.545149	-422.537975	-422.537031	-422.576466	28.735	
C	 0.4385691173	 1.2244436475	-0.0200161234	-0.300156
O	 0.0545581593	-0.1671504473	-0.030911583	-0.307067
C	 1.4307376593	 0.1598113985	 0.0318429699	 0.515314
C	 2.421043617	-0.3015558906	-1.0326538576	-0.150687
C	 2.5614484702	-1.7983539779	-0.6548229133	-0.219785
C	 2.4868972754	-1.7730897928	 0.9121560093	-0.221374
C	 2.3035823776	-0.2716179178	 1.2023381414	 0.018425
O	 3.5363211917	 0.4052511182	 0.9207151335	-0.287244
C	 3.6669739791	 0.4380836462	-0.5201477528	-0.071901
H	 0.2591580401	 1.7581898952	-0.9522458283	 0.117363
H	 0.1759467208	 1.7697202541	 0.8851437137	 0.121141
H	 2.1623386646	-0.0976258575	-2.0714537323	 0.075563
H	 1.7373283579	-2.3768897055	-1.0789504358	 0.11306
H	 3.4975024447	-2.2240025494	-1.0261694267	 0.099942
H	 1.6375770835	-2.3528977879	 1.2843318742	 0.110922
H	 3.3959538445	-2.1452178277	 1.3891913879	 0.108066
H	 1.9755143363	-0.0062293541	 2.2070935688	 0.080301
H	 3.7012534865	 1.4829376958	-0.8553407687	 0.098444
H	 4.602835404	-0.0522456573	-0.8151577969	 0.099672
151.9048	169.1012	268.3432	291.8183	368.2532	389.181	539.8346	590.8582	613.1207	755.4691	796.1412	850.9386	874.1877	883.0621	890.9199	926.4216	940.3971	973.8967	988.0896	999.0445	1036.9643	1050.761	1088.7323	1118.1346	1143.5795	1165.3319	1182.3868	1211.3695	1214.9762	1233.8795	1273.4429	1281.1547	1300.5325	1320.5507	1334.8682	1380.7153	1462.409	1474.3551	1498.4357	1528.6825	1548.8392	3009.4667	3047.549	3058.9082	3067.5051	3084.8273	3102.0495	3121.4729	3122.6142	3126.7842	3171.4624
C1OC11C2CCC1OC2	C1O[C@]21[C@@H]1CC[C@H]2OC1	
InChI=1S/C7H10O2/c1-2-6-7(4-9-7)5(1)3-8-6/h5-6H,1-4H2	InChI=1S/C7H10O2/c1-2-6-7(4-9-7)5(1)3-8-6/h5-6H,1-4H2/t5-,6-,7-/m1/s1
