19
gdb 77	5.4577044	0.6335518	0.6062333	0.8178	77.68	-0.22143	0.02079	0.24222	1809.9375	0.157287	-422.57849	-422.569346	-422.568402	-422.613797	32.623	
O	 0.5905611737	 6.4801245082	 1.4852193342	-0.419214
C	 1.0414199264	 5.6601386735	 0.4191542891	-0.055119
C	 0.7587644056	 4.1752568611	 0.6475639677	-0.188306
C	 1.1826660085	 3.2978718997	-0.5443129232	-0.336571
C	 0.9135202437	 1.8374802987	-0.3332979205	 0.255773
C	 1.8287166783	 0.8407736362	-0.1929321188	-0.1036
O	 1.2209826738	-0.3621332633	-0.0022052783	-0.142098
C	-0.1168735375	-0.1288327774	-0.020979011	 0.006716
C	-0.368152424	 1.1898698367	-0.2180692212	-0.278875
H	 1.0638558556	 6.2136596563	 2.2798567292	 0.280079
H	 0.5044239252	 6.0117004704	-0.4693029243	 0.1105
H	 2.1162485757	 5.8120212191	 0.2237451409	 0.08398
H	 1.2880715601	 3.8361531228	 1.548711489	 0.091217
H	-0.3111457772	 4.0485812752	 0.849014907	 0.11037
H	 0.656394502	 3.6440851809	-1.44406132	 0.109992
H	 2.2517247285	 3.4430576608	-0.7419244806	 0.102183
H	 2.9064400435	 0.8239687093	-0.2088065017	 0.13024
H	-0.7446780376	-0.9939924706	 0.1151277628	 0.134305
H	-1.3401038943	 1.6551388123	-0.2801064102	 0.108427
43.4465	77.3728	91.228	131.2725	244.0852	303.0712	317.2444	328.4966	469.4826	622.2032	647.3158	714.0784	735.7499	752.4878	785.6998	832.5853	854.6917	892.5805	981.7409	1023.5645	1041.2449	1058.8364	1072.5364	1085.725	1100.806	1150.5559	1204.9863	1253.9065	1272.3139	1278.9129	1302.8122	1318.4087	1372.4984	1398.0726	1411.9833	1424.8534	1481.8952	1494.1405	1515.743	1537.5599	1636.6678	2965.0163	3010.425	3020.1234	3049.0307	3059.1444	3080.8374	3247.7474	3270.1161	3283.3512	3815.4767
OCCCC1=COC=C1	OCCCc1cocc1	
InChI=1S/C7H10O2/c8-4-1-2-7-3-5-9-6-7/h3,5-6,8H,1-2,4H2	InChI=1S/C7H10O2/c8-4-1-2-7-3-5-9-6-7/h3,5-6,8H,1-2,4H2
