19
gdb 373	4.8488658	1.0134197	0.9860906	2.3239	75.83	-0.23411	0.06389	0.29800000000000004	1259.6574	0.156021	-422.495133	-422.486905	-422.485961	-422.528544	31.107	
C	-3.4920850793	 2.5777334046	 0.0148442797	-0.333261
C	-2.631294635	 3.8376369645	 0.0150608693	-0.333258
C	-2.0126710288	 2.4910007351	-0.1437427074	 0.451409
C	-1.1640363243	 1.9114001948	-1.2670138658	-0.43967
C	-0.3168763953	 1.3324574453	-0.1176034692	 0.364676
C	 1.2005729578	 1.5504211204	 0.0151970968	-0.127957
O	 1.444402871	 0.1292266593	-0.034259857	-0.274894
C	 0.0318202583	-0.1604069722	 0.0149041482	-0.12796
O	-1.177532798	 1.9202464695	 0.871232835	-0.322748
H	-3.905556853	 2.2594033193	 0.9658577771	 0.127215
H	-4.1211565792	 2.3751942509	-0.8461671132	 0.115671
H	-2.6711548563	 4.497497796	-0.8458041867	 0.11567
H	-2.4852039676	 4.3383205205	 0.9662142966	 0.127214
H	-1.6567532099	 1.1674337202	-1.8972468852	 0.116331
H	-0.6500357021	 2.6410007529	-1.8970416351	 0.116331
H	 1.7005229438	 2.0870388745	-0.8003020413	 0.101529
H	 1.484880725	 1.9929465049	 0.9786841416	 0.111087
H	-0.2861493618	-0.8210654362	-0.8007998783	 0.101529
H	-0.2771901751	-0.5863868942	 0.9782423648	 0.111087
48.6391	82.6667	211.3942	253.3554	314.7186	365.5828	395.5162	412.2813	461.6542	655.9773	755.3677	824.9975	826.9435	889.3423	893.624	900.9502	921.7247	922.3684	950.4314	985.7395	1000.0514	1029.0613	1048.8428	1069.381	1128.6215	1142.4271	1146.8955	1168.004	1186.2146	1206.1881	1209.9084	1266.569	1284.9853	1295.7899	1367.3137	1398.9413	1448.3472	1483.55	1493.4159	1507.3006	1521.7611	3005.5407	3017.7896	3061.9425	3062.3747	3065.686	3118.2894	3126.9811	3129.5757	3210.4521	3224.4932
C1CC11CC2(COC2)O1	C1CC21CC1(COC1)O2	
InChI=1S/C7H10O2/c1-2-6(1)3-7(9-6)4-8-5-7/h1-5H2	InChI=1S/C7H10O2/c1-2-6(1)3-7(9-6)4-8-5-7/h1-5H2
