19
gdb 295	2.6761962	2.0901641	1.5131542	1.5782	72.86	-0.24338	0.07061	0.31399	912.4582	0.160796	-422.558028	-422.551431	-422.550486	-422.588868	27.012	
C	-0.6764287295	 0.0139675059	 0.572359573	-0.269759
C	 0.6824091253	 0.5928579823	 1.0874495874	 0.094197
O	 1.8592709092	 0.191060222	 0.4205936562	-0.253043
C	 1.886556834	 0.8163810295	-0.8567273503	-0.101052
C	 1.13195169	 2.1673064032	-0.7339663999	-0.055922
C	 0.0565708553	 2.343937736	-1.8116604848	-0.094333
O	-1.0093200143	 1.4819605253	-1.4226749175	-0.268865
C	-1.0508766858	 1.4109407238	-0.0006411397	 0.099036
C	 0.2840719788	 1.9912023342	 0.5405679117	-0.078759
H	-0.5963143898	-0.7713633378	-0.1816238726	 0.114424
H	-1.3319669493	-0.3262646975	 1.3779812516	 0.101003
H	 0.8567380935	 0.4823805237	 2.159140354	 0.081878
H	 2.9349341083	 0.9336005747	-1.1441458655	 0.10746
H	 1.3922571654	 0.1816909959	-1.6070998991	 0.101368
H	 1.8194958682	 3.0132099209	-0.6775268332	 0.079057
H	-0.279541118	 3.3915597313	-1.861949484	 0.090362
H	 0.3804845628	 2.0404633498	-2.8128733681	 0.109479
H	-1.9836760099	 1.8460880936	 0.3715339515	 0.074057
H	 0.2614494958	 2.8472811732	 1.2130023795	 0.069411
134.3659	191.1471	354.0195	375.9624	398.0068	593.8048	604.3983	696.9642	716.0494	735.6944	832.3946	845.1766	881.2798	904.3539	915.3681	968.1703	976.9416	984.655	1012.6258	1016.282	1043.4522	1072.0804	1121.1213	1136.6971	1165.051	1185.0319	1207.6854	1228.9372	1236.6531	1257.5709	1269.2856	1278.1103	1293.2148	1322.27	1337.2557	1359.7495	1379.7198	1406.2604	1458.4	1516.5984	1520.7635	2980.069	2994.5675	3049.8117	3068.5819	3070.922	3080.7513	3094.5126	3097.196	3125.0756	3132.191
C1C2OCC3COC1C23	C1[C@H]2OC[C@H]3CO[C@@H]1[C@@H]23	
InChI=1S/C7H10O2/c1-5-7-4(2-8-5)3-9-6(1)7/h4-7H,1-3H2	InChI=1S/C7H10O2/c1-5-7-4(2-8-5)3-9-6(1)7/h4-7H,1-3H2/t4-,5+,6-,7+
