19
gdb 400	3.8979121	1.1318404	1.0266606	3.001	74.99	-0.25911	0.06156	0.32067	1201.0627	0.156798	-422.528611	-422.520555	-422.519611	-422.562508	30.911	
C	 2.6014600737	 3.9619518666	 0.3875748354	-0.253719
O	 1.5150584975	 4.8333209185	 0.7225921577	-0.282034
C	 1.2050331774	 3.5212653404	 0.2673374769	 0.468267
C	 0.5004297887	 3.3627603578	-1.0766020873	-0.306846
C	 0.0957592838	 1.8786980235	-1.0827936714	-0.290619
C	-0.2897870049	 1.617951453	 0.3699477374	 0.436609
C	-0.9178554274	 0.3805468265	 0.8355172989	-0.25669
O	-1.6951651158	 1.5685671006	 0.6569280044	-0.271589
C	 0.5563468454	 2.5391647696	 1.250667	-0.383699
H	 3.1638890921	 4.23897785	-0.5038905627	 0.111814
H	 3.2054463349	 3.6255755836	 1.2302129486	 0.110778
H	-0.3947378513	 3.9960598675	-1.0807294832	 0.124879
H	 1.1243139956	 3.6591900623	-1.9227561046	 0.103152
H	-0.727268558	 1.6428395427	-1.7604203579	 0.116123
H	 0.9550687205	 1.2534774289	-1.3563728755	 0.104924
H	-1.1218420978	-0.4239997693	 0.1286113831	 0.109564
H	-0.7833518476	 0.0600083871	 1.8685471595	 0.111241
H	-0.0883473299	 3.0728066428	 1.9545679962	 0.1377
H	 1.3025928029	 1.9879860479	 1.8304296845	 0.110147
15.1739	131.3011	265.084	318.8777	339.1442	375.451	404.0611	424.8235	460.8186	560.0409	707.8618	773.3549	804.2338	840.8865	863.6466	897.2407	923.3053	938.7498	968.8655	987.319	1006.5387	1035.7328	1127.5847	1128.6682	1152.9602	1159.5226	1177.2817	1191.5788	1207.7864	1211.876	1258.6825	1278.9494	1316.8456	1321.619	1421.9978	1430.7835	1469.2605	1476.8699	1493.0539	1529.5585	1535.1147	3031.4955	3044.5948	3056.0284	3071.8018	3072.2389	3103.7029	3105.7276	3114.3891	3154.9669	3158.6325
C1OC11CCC2(CO2)C1	C1O[C@]21CC[C@@]1(CO1)C2	
InChI=1S/C7H10O2/c1-2-7(5-9-7)3-6(1)4-8-6/h1-5H2	InChI=1S/C7H10O2/c1-2-7(5-9-7)3-6(1)4-8-6/h1-5H2/t6-,7+
