19
gdb 212	2.918678	1.8746951	1.5649343	1.4107	73.04	-0.24607	0.08372	0.32979	918.9574	0.160758	-422.563204	-422.556463	-422.555519	-422.594051	27.655	
C	-0.8252852761	-1.182156051	 0.2757685149	-0.302223
C	-0.6256817132	 0.3049021043	 0.4605563237	-0.024109
C	-1.1980223165	 1.2922355173	-0.557112702	-0.251826
C	-0.3873937733	 1.2733762822	-1.8578808004	 0.202551
O	 0.8747348875	 1.9097271588	-1.6702459449	-0.277011
C	 1.8586958577	 0.8840956412	-1.5403102993	-0.079858
C	 1.0114263643	-0.3881374271	-1.3958607767	 0.025858
O	-0.0994607844	-0.0588440942	-2.2395854568	-0.258685
C	 0.5313607236	-0.5791882198	 0.0319288013	-0.025326
H	-0.9602955195	-1.7943131043	 1.1607051119	 0.106968
H	-1.3878428261	-1.5031103007	-0.5940772379	 0.12472
H	-0.6107846682	 0.6566543333	 1.4866232274	 0.08576
H	-2.2459412211	 1.0605556608	-0.7828488249	 0.101569
H	-1.1699112976	 2.3109609487	-0.1587325856	 0.111149
H	-0.9132844479	 1.7604535061	-2.6851968127	 0.085353
H	 2.4903884624	 0.8491790881	-2.437405358	 0.098636
H	 2.4853612342	 1.0863544675	-0.6657406632	 0.104202
H	 1.4875531937	-1.2828675997	-1.8046263708	 0.087585
H	 1.3171375703	-0.7782725214	 0.7548081839	 0.084687
144.3278	217.0963	298.4954	376.0428	407.5893	466.9337	561.5242	670.4146	744.3834	790.0546	796.7335	828.3095	852.9933	864.953	907.7236	924.6428	960.8085	989.57	1014.5152	1039.403	1054.4168	1071.424	1078.2873	1115.2703	1123.7632	1134.952	1159.4782	1209.5183	1217.1444	1233.8129	1282.6128	1318.8964	1333.7825	1348.9333	1373.4435	1383.2475	1400.4285	1410.6094	1473.7327	1486.6356	1518.5633	3015.9517	3032.9119	3064.9195	3075.0599	3085.0596	3086.4705	3133.5788	3147.3156	3160.0417	3223.5069
C1C2CC3OCC(O3)C12	C1[C@@H]2C[C@H]3OC[C@H](O3)[C@H]12	
InChI=1S/C7H10O2/c1-4-2-7-8-3-6(9-7)5(1)4/h4-7H,1-3H2	InChI=1S/C7H10O2/c1-4-2-7-8-3-6(9-7)5(1)4/h4-7H,1-3H2/t4-,5-,6+,7+/m1/s1
