19
gdb 252	2.9302132	1.7185579	1.2493264	1.6852	74.9	-0.24017	0.08441	0.32458	1020.7023	0.158778	-422.527946	-422.520711	-422.519767	-422.559314	29.161	
C	 1.7458872798	 3.0231220941	-1.285436585	-0.270307
C	 2.6281780238	 2.0762268745	-0.4590534357	-0.069962
O	 2.089774825	 2.0565511589	 0.8804432664	-0.309136
C	 1.4830998809	 1.2221521244	-0.101476896	 0.453657
C	 1.2379922746	-0.2370308877	 0.0959101155	-0.344411
C	 0.6330038939	-0.8006294293	-1.2073566303	-0.207359
C	-0.4484834671	 0.1347675143	-1.7615189765	-0.06958
O	 0.0761236188	 1.4183431213	-2.0821762729	-0.260218
C	 0.5318298506	 2.1068556769	-0.9340208595	 0.044471
H	 1.7108921307	 4.0562383586	-0.9338969381	 0.10983
H	 1.9447439877	 2.9886834858	-2.3581602695	 0.119899
H	 3.682004283	 1.8434409843	-0.5618356702	 0.102571
H	 2.1536714676	-0.7632432158	 0.3838723066	 0.111403
H	 0.5202862922	-0.3643704096	 0.9182270315	 0.111504
H	 1.4164041812	-0.9067934877	-1.966389471	 0.110654
H	 0.2070962105	-1.794684487	-1.0331461439	 0.099844
H	-0.8618705677	-0.2597791063	-2.6939089727	 0.110335
H	-1.2775002399	 0.2285871125	-1.0392094559	 0.088209
H	-0.3028655555	 2.5636692676	-0.3836514228	 0.068597
153.5967	159.6338	304.5246	341.0857	392.1837	430.0102	464.8964	468.3942	573.2534	644.3464	755.2481	831.7849	857.2715	869.6778	891.2917	907.0415	944.4594	957.231	1001.5978	1006.5101	1035.247	1068.916	1102.3141	1118.6334	1165.0889	1181.2946	1215.4002	1232.1806	1245.0108	1267.1843	1291.5485	1303.0384	1337.7335	1353.321	1370.3167	1407.6012	1453.0615	1475.2852	1480.2156	1496.399	1500.8248	2963.1162	3004.3907	3016.4458	3038.473	3075.2013	3075.9556	3085.7986	3089.9441	3140.2143	3183.8729
C1C2OC22CCCOC12	C1[C@H]2O[C@@]32CCCO[C@H]13	
InChI=1S/C7H10O2/c1-2-7-5(8-3-1)4-6(7)9-7/h5-6H,1-4H2	InChI=1S/C7H10O2/c1-2-7-5(8-3-1)4-6(7)9-7/h5-6H,1-4H2/t5-,6-,7+/m1/s1
