19
gdb 323	2.4200227	2.1569962	1.4627115	0.8768	74.5	-0.22509	0.07321	0.2983	936.5923	0.158849	-422.493142	-422.486012	-422.485068	-422.524183	29.298	
C	 0.7612292017	 1.7731513162	 0.4514226244	-0.435481
C	 0.7357954474	 0.7712874569	-0.7136242882	-0.072259
C	 1.5712656959	-0.4360591779	-1.0368391774	-0.102818
O	 0.7708894038	-1.6412079296	-1.0409357394	-0.274139
C	-0.6549750957	-1.5571250963	-1.0313867596	-0.0842
C	-1.3025127065	-0.9614602594	 0.2574502212	 0.064588
C	-0.2054848955	-0.6518748781	 1.287763161	-0.299047
C	-0.1777313965	 0.6290606844	 0.4623096328	 0.429113
O	-1.5671702165	 0.4816339793	 0.1302056951	-0.320526
H	 1.5617545034	 1.7375018264	 1.1856664504	 0.123248
H	 0.4167487505	 2.7734470561	 0.2127082076	 0.132104
H	 0.2109334348	 1.1870206737	-1.5695497447	 0.105691
H	 2.053031924	-0.3411254184	-2.0183540326	 0.102352
H	 2.3624182754	-0.5996238953	-0.29488794	 0.104157
H	-1.0473885763	-1.0056959146	-1.8975143842	 0.106363
H	-0.9698387066	-2.6008660632	-1.129833404	 0.110822
H	-2.2134494274	-1.4918440298	 0.5449221306	 0.079831
H	-0.6145816657	-0.4714839012	 2.2838979323	 0.106871
H	 0.6707663701	-1.2960131191	 1.3220149446	 0.123332
151.7365	251.7787	311.5262	344.8461	351.9712	411.4592	466.1846	547.4165	560.5576	658.9407	778.4852	808.1352	832.5518	856.972	864.4351	887.85	923.9158	944.096	991.5539	1020.688	1043.912	1055.8696	1072.3202	1100.1844	1124.6335	1139.3878	1176.0506	1192.8751	1233.0371	1252.6903	1271.8562	1311.6513	1327.1414	1351.6117	1384.7846	1393.9175	1427.6789	1476.5342	1481.0778	1500.5421	1513.8637	3006.5097	3014.8823	3048.3236	3075.3978	3082.6302	3095.278	3121.1795	3144.0762	3162.4568	3212.4449
C1C2COCC3CC12O3	C1[C@H]2COC[C@H]3C[C@@]12O3	
InChI=1S/C7H10O2/c1-5-3-8-4-6-2-7(1,5)9-6/h5-6H,1-4H2	InChI=1S/C7H10O2/c1-5-3-8-4-6-2-7(1,5)9-6/h5-6H,1-4H2/t5-,6+,7-/m0/s1
