19
gdb 63	4.1402806	0.8642905	0.7534553	0.8624	82.2	-0.21071	0.01531	0.22602	1558.7543	0.15573	-422.57269	-422.563179	-422.562235	-422.608001	33.229	
C	 1.3875555593	 0.3118714281	-0.0576683163	-0.220039
O	-0.0122269745	 0.1812502053	 0.0047253749	-0.231015
C	-0.5221123044	 0.4633679031	 1.2978581502	-0.188258
C	-2.0023382549	 0.3761824933	 1.2950892577	 0.349531
C	-2.8831029768	-0.5338670083	 1.7897782069	-0.257684
C	-4.1918579103	-0.0495698958	 1.4687957042	-0.255483
C	-4.0158287757	 1.1233981166	 0.7997367465	 0.351193
C	-4.9522179683	 2.1088320344	 0.1984237312	-0.49325
O	-2.6851961537	 1.395612565	 0.6917909956	-0.206441
H	 1.8975143258	-0.3878035641	 0.6246586727	 0.100625
H	 1.6903983185	 0.0868512818	-1.0830294338	 0.128016
H	 1.7165753221	 1.3330457692	 0.1945606619	 0.102618
H	-0.1283842527	-0.2539177205	 2.0357548559	 0.098015
H	-0.2009674639	 1.4705074011	 1.6137397272	 0.09775
H	-2.62952089	-1.4413740586	 2.3156962477	 0.107966
H	-5.1382930031	-0.5114598318	 1.7033771558	 0.10464
H	-4.8385334431	 3.1006881204	 0.6507617245	 0.137027
H	-4.7804182428	 2.2197180984	-0.878228219	 0.140555
H	-5.9829708015	 1.7803966024	 0.3485848361	 0.134236
52.8354	83.1906	100.4383	132.3973	221.8187	228.3656	266.2886	336.9689	378.769	401.8487	634.9079	642.3478	672.8461	779.7312	798.4321	835.7763	943.7517	977.1564	983.3327	1014.0492	1030.3418	1048.2119	1064.6401	1140.4148	1180.7778	1217.8236	1221.568	1240.9953	1253.0399	1278.833	1399.1762	1408.9638	1418.2493	1472.7877	1476.9482	1484.0759	1491.9463	1494.8966	1515.3601	1598.7667	1658.2197	2954.8121	2966.9415	2995.2582	3005.9368	3030.6348	3080.9773	3115.2349	3129.5024	3248.0107	3261.7296
COCC1=CC=C(C)O1	COCc1ccc(C)o1	
InChI=1S/C7H10O2/c1-6-3-4-7(9-6)5-8-2/h3-4H,5H2,1-2H3	InChI=1S/C7H10O2/c1-6-3-4-7(9-6)5-8-2/h3-4H,5H2,1-2H3
