19
gdb 195	2.5987554	2.1031792	1.6317985	1.5227	73.66	-0.24284	0.07933	0.32217	895.3644	0.160247	-422.52519	-422.518569	-422.517625	-422.555619	28.154	
C	 3.4129410442	-1.5364869192	-2.8944441104	-0.391308
C	 2.3658713579	-0.8569128775	-1.9981482248	-0.080091
C	 2.1558725126	-0.8238847974	-0.4775205655	-0.264339
C	 3.2585733982	 0.1902197654	-0.0481715526	 0.12773
C	 4.4398307512	-0.3166007492	-0.8755323018	-0.27044
C	 3.729605028	-0.2437918104	-2.2279067213	 0.411941
O	 3.7753617961	 1.0676737747	-2.7241562874	-0.305605
C	 2.9136567572	 1.8201679848	-1.8642299458	 0.028448
O	 3.034873995	 1.5488294411	-0.4768824846	-0.294209
H	 3.9772445302	-2.4076462107	-2.5727930241	 0.116008
H	 3.1355559815	-1.5494790361	-3.9438017082	 0.125658
H	 1.5506217329	-0.4550195486	-2.5893414812	 0.100452
H	 1.1487299351	-0.4768827049	-0.2323552685	 0.108374
H	 2.3130418143	-1.7770327196	 0.0415706391	 0.103085
H	 3.4024587992	 0.2624562425	 1.033102068	 0.073462
H	 5.3084519652	 0.3416183819	-0.8407685407	 0.111951
H	 4.732798804	-1.3328176911	-0.5959834112	 0.094158
H	 3.1799428521	 2.8719515103	-1.9932325176	 0.117232
H	 1.8733250351	 1.6548694439	-2.1807730816	 0.087494
212.85	316.8117	349.721	387.3691	418.4907	443.6232	497.9105	607.8969	615.9119	745.6568	760.1604	804.2184	845.5687	863.6606	895.1419	907.0924	946.7112	963.3391	986.2678	1010.2851	1030.1859	1063.4333	1072.1867	1092.009	1123.2682	1156.6198	1168.5778	1207.9369	1241.5277	1244.1019	1285.9687	1300.3578	1310.6408	1333.4766	1371.7771	1391.3437	1445.5464	1471.7403	1477.4774	1491.7051	1528.1181	2988.2248	3035.6311	3060.4364	3084.1081	3099.493	3102.4945	3116.1737	3134.9823	3168.4077	3205.964
C1C2CC3CC12OCO3	C1[C@H]2C[C@H]3C[C@@]12OCO3	
InChI=1S/C7H10O2/c1-5-2-7(5)3-6(1)8-4-9-7/h5-6H,1-4H2	InChI=1S/C7H10O2/c1-5-2-7(5)3-6(1)8-4-9-7/h5-6H,1-4H2/t5-,6+,7+/m1/s1
