19
gdb 207	2.4168625	2.2787197	1.855411	2.4959	72.7	-0.25081	0.0781	0.32891	857.5774	0.161308	-422.568876	-422.562592	-422.561647	-422.599102	26.768	
C	 1.455416845	 0.165233639	-0.1953141033	-0.240456
C	 1.1969396022	 1.6559460579	 0.1612364757	-0.046531
C	 1.5146947911	 2.0222993844	 1.6112503069	-0.088403
O	 0.8576180514	 1.184320548	 2.5648884324	-0.270061
C	-0.4155404831	 0.7032441882	 2.1823013149	 0.198702
C	-1.1378276321	 1.6885451487	 1.2552022371	-0.269478
C	-0.3448277749	 1.406994997	-0.017665075	-0.065896
C	-0.0429632633	-0.1222169218	 0.0589029656	 0.110701
O	-0.3183326401	-0.485000853	 1.4113806179	-0.263403
H	 1.7207720399	 0.0374725558	-1.2487210499	 0.0973
H	 2.1580552499	-0.3922528265	 0.4285121621	 0.111162
H	 1.6515411739	 2.3953578393	-0.5034558302	 0.070204
H	 2.5869231655	 1.9238781039	 1.8116325736	 0.109844
H	 1.2421227445	 3.0736291118	 1.7914604066	 0.09221
H	-0.9286451828	 0.4375990514	 3.1076796116	 0.090038
H	-2.1900979295	 1.4104515391	 1.1492438728	 0.108384
H	-1.078739679	 2.7218818697	 1.6052749251	 0.10986
H	-0.7748774093	 1.7775748466	-0.9473370469	 0.071414
H	-0.5566797093	-0.8298295797	-0.5949115569	 0.074409
186.3116	336.3141	355.111	422.9035	455.7466	522.7548	589.7441	636.575	769.368	794.9528	806.5747	852.0771	873.121	886.0276	901.9768	933.8264	954.1088	973.7113	1003.4269	1033.0355	1056.2285	1080.5653	1090.6833	1101.8306	1134.0686	1181.3214	1199.7524	1228.0012	1248.2379	1260.0231	1274.6117	1292.2188	1319.0165	1332.2145	1341.8865	1364.8659	1385.4164	1412.3223	1468.3429	1483.5887	1517.0489	2983.1577	3055.5831	3063.9489	3064.6802	3072.7632	3087.9277	3112.4762	3115.1925	3117.83	3121.8043
C1C2COC3CC2C1O3	C1[C@@H]2CO[C@H]3C[C@@H]2[C@@H]1O3	
InChI=1S/C7H10O2/c1-4-3-8-7-2-5(4)6(1)9-7/h4-7H,1-3H2	InChI=1S/C7H10O2/c1-4-3-8-7-2-5(4)6(1)9-7/h4-7H,1-3H2/t4-,5+,6-,7-/m1/s1
