19
gdb 72	5.603084	0.6994806	0.6625586	0.9755	79.57	-0.21598	0.01992	0.2359	1714.4147	0.156773	-422.568346	-422.559189	-422.558244	-422.603651	32.134	
C	 1.4025134993	-0.2616988916	 0.0495195216	-0.228789
O	 0.0144632726	-0.0320288586	 0.063233201	-0.229292
C	-0.4127606128	 0.6768127967	 1.204300822	-0.04702
C	-1.9297637382	 0.8606743691	 1.1056770112	-0.324212
C	-2.5045780411	 1.5830346065	 2.2730347281	 0.358078
C	-3.0927031303	 2.8005644748	 2.4295312204	-0.275267
C	-3.4273562351	 2.9216464829	 3.8188171033	-0.168575
C	-3.0151428186	 1.7688119936	 4.4031934501	-0.020998
O	-2.4513404994	 0.942765369	 3.4802697847	-0.179987
H	 1.727675564	-0.8559108587	 0.9183869835	 0.104221
H	 1.6343420283	-0.8158598445	-0.8633561792	 0.126643
H	 1.9736038422	 0.6805765112	 0.047837272	 0.103352
H	-0.1582450384	 0.1266363815	 2.1247204314	 0.099309
H	 0.0845228739	 1.6597564168	 1.2634254465	 0.089436
H	-2.1626505581	 1.4203749237	 0.1953223154	 0.122048
H	-2.3884133682	-0.1300154156	 1.0024872039	 0.125403
H	-3.2703026845	 3.523845137	 1.6488295965	 0.106284
H	-3.910265538	 3.753156783	 4.3075946836	 0.109272
H	-3.0462670876	 1.3903816032	 5.411504454	 0.130094
47.6817	78.4875	92.2041	111.2543	229.3617	250.12	319.287	343.0069	452.5425	615.4714	665.7845	739.4249	752.1831	795.3174	807.7843	848.5676	902.6468	947.1767	993.7105	1027.4186	1053.821	1057.3115	1117.0597	1162.1621	1179.0197	1184.7009	1219.0918	1225.2737	1239.2493	1263.7335	1307.2069	1321.302	1415.8922	1420.0732	1476.8004	1481.6414	1485.151	1505.0599	1533.4649	1542.5997	1640.1547	2957.0716	2971.5916	2993.0471	3011.8617	3040.5551	3100.2788	3112.9825	3250.202	3261.6401	3285.6068
COCCC1=CC=CO1	COCCc1ccco1	
InChI=1S/C7H10O2/c1-8-6-4-7-3-2-5-9-7/h2-3,5H,4,6H2,1H3	InChI=1S/C7H10O2/c1-8-6-4-7-3-2-5-9-7/h2-3,5H,4,6H2,1H3
