19
gdb 97	4.3307171	1.0136083	0.9705945	1.777	76.01	-0.23426	0.08805	0.32231	1272.9895	0.156286	-422.468352	-422.460242	-422.459298	-422.501848	30.596	
C	-0.8901337836	-0.372212431	 1.1231752305	-0.379753
C	 0.4708209786	 0.2468816154	 0.9012905867	 0.101866
C	 0.7190110069	 1.2230405298	-0.1645918877	-0.183442
O	 1.1504978278	-0.1325209989	-0.3003412504	-0.23668
C	-0.7864619927	-1.7790904732	 1.6409544263	 0.439006
C	-1.8927636395	-2.7558597586	 2.1216687804	-0.270793
C	-0.506942335	-3.3310046388	 2.4940165562	 0.051032
C	 0.0174440237	-2.9859676182	 1.0834029263	-0.244021
O	-0.0997085598	-1.9814008079	 2.9515654089	-0.350732
H	-1.4559529802	 0.2300260799	 1.8453281873	 0.11602
H	-1.4487773825	-0.3770457636	 0.180517167	 0.112885
H	 1.1122267904	 0.2697698955	 1.781950698	 0.113514
H	-0.0990028143	 1.5210814438	-0.8200685555	 0.111123
H	 1.5134793777	 1.9595343953	-0.0531281591	 0.115822
H	-2.4888874432	-2.4008424371	 2.9636971553	 0.103811
H	-2.4842317726	-3.2772248282	 1.364326591	 0.093731
H	-0.2592960277	-4.1718526473	 3.1411869134	 0.094905
H	 1.0931484949	-2.829222413	 1.0067861524	 0.117859
H	-0.3986316189	-3.5264019039	 0.2293875129	 0.093847
60.3395	74.8511	127.4297	277.8228	321.7919	352.8999	450.8895	521.1158	596.6802	684.2932	717.4632	781.4362	806.2129	854.6026	884.3091	905.7022	938.0767	960.9868	962.9512	984.8174	996.4987	1069.9613	1079.1268	1101.488	1115.8215	1147.5078	1155.208	1160.9979	1175.5378	1213.7492	1227.5088	1237.2984	1262.7086	1294.0092	1312.4354	1364.5488	1446.3338	1452.3743	1467.273	1513.5434	1530.2203	3030.8801	3057.6554	3069.2339	3079.2645	3080.6477	3122.4656	3124.3042	3142.185	3156.2278	3166.529
C(C1CO1)C12CC(C1)O2	C([C@@H]1CO1)[C@@]12C[C@@H](C1)O2	
InChI=1S/C7H10O2/c1-5-2-7(1,9-5)3-6-4-8-6/h5-6H,1-4H2	InChI=1S/C7H10O2/c1-5-2-7(1,9-5)3-6-4-8-6/h5-6H,1-4H2/t5-,6-,7+/m1/s1
