19
gdb 112	3.4412194	1.1868978	1.1594222	3.1275	76.49	-0.21083	0.05248	0.26331	1164.445	0.156162	-422.483711	-422.475307	-422.474362	-422.517364	30.962	
C	-1.5265224969	 1.8652715621	 0.1553900704	-0.450835
C	-0.2357198069	 1.15323369	 0.4722917863	 0.387043
C	 0.1560154519	-0.3142297509	 0.3370487484	-0.362138
C	 1.499926722	 0.265638946	-0.1562482928	-0.065965
O	 1.016631317	 1.6229893273	-0.0223449147	-0.299264
C	-0.9770687345	 1.856866196	 1.5595362517	 0.387044
C	-1.5641329469	 1.3184016954	 2.8597700173	-0.362138
C	-0.969054492	 2.6090020967	 3.4646827583	-0.065965
O	-0.4809064328	 3.0443378353	 2.1739082607	-0.299264
H	-1.4245434608	 2.8037330047	-0.3824199896	 0.136661
H	-2.4175712499	 1.2878851263	-0.0785128477	 0.111427
H	 0.1974299626	-0.8828127283	 1.2689318504	 0.111572
H	-0.4091784204	-0.8790511921	-0.4071522359	 0.115092
H	 2.3631561242	 0.0780853946	 0.4923572114	 0.107288
H	 1.769106255	 0.0329767125	-1.1923414778	 0.107745
H	-2.6537107772	 1.2512801107	 2.8846144593	 0.115092
H	-1.1349216794	 0.3817579647	 3.2229286374	 0.111572
H	-1.6918211397	 3.317814975	 3.8833367995	 0.107745
H	-0.1502628851	 2.4636247339	 4.1784586674	 0.107288
69.4994	89.7453	134.0335	155.7678	242.1147	373.7468	395.7609	487.5369	530.5722	647.6882	782.2848	795.691	848.5158	853.2252	870.4132	873.2133	902.8381	957.1803	975.2009	1007.4686	1023.008	1030.5109	1095.8073	1124.8768	1134.4075	1162.4089	1166.12	1171.1441	1208.7883	1215.2998	1225.5307	1248.9416	1258.0782	1348.848	1359.8009	1396.8813	1476.7907	1484.9925	1491.583	1527.7093	1535.8689	3026.8694	3028.0212	3066.658	3068.2298	3070.2364	3070.5564	3107.3632	3120.0964	3120.665	3204.0617
C1C2(CCO2)C11CCO1	C1[C@]2(CCO2)[C@@]21CCO2	
InChI=1S/C7H10O2/c1-3-8-6(1)5-7(6)2-4-9-7/h1-5H2	InChI=1S/C7H10O2/c1-3-8-6(1)5-7(6)2-4-9-7/h1-5H2/t6-,7+
