19
gdb 167	3.170372	1.7024608	1.4020194	1.6932	74.53	-0.25554	0.08882	0.34436	965.1908	0.160341	-422.501471	-422.494851	-422.493907	-422.532073	27.862	
C	 1.2543581843	 0.3828246137	-0.9486522496	-0.293947
C	 1.2842763939	 1.5157039241	 0.1498415798	-0.102474
C	-0.263876906	 1.4398313743	 0.1596142119	-0.301163
C	 0.2676514649	-0.0395207477	 0.1570785176	 0.442982
O	-0.4568964108	-1.2025708624	 0.3366430052	-0.302421
C	-0.898059963	-1.2390958277	 1.6973122909	-0.004226
O	 0.1194748004	-1.0530367133	 2.6419826868	-0.242484
C	 0.7311390737	 0.2516028092	 2.5910383763	-0.162844
C	 1.3360332358	 0.3565258666	 1.1991288679	 0.000592
H	 0.8357742019	 0.6660377606	-1.9176078983	 0.09676
H	 2.1584384908	-0.2220351873	-1.0520067647	 0.100363
H	 1.8921266636	 2.4169803516	 0.118671923	 0.083692
H	-0.7798294929	 1.8125334172	 1.0439691831	 0.095006
H	-0.770003999	 1.7646585037	-0.7524361695	 0.096118
H	-1.6873772939	-0.4794256187	 1.8333438589	 0.085227
H	-1.3011488631	-2.2396161953	 1.8589519879	 0.121192
H	-0.0164641787	 1.0249628361	 2.8116845493	 0.100115
H	 1.4742805981	 0.2594932738	 3.3915406607	 0.111764
H	 2.2437280099	-0.2521835986	 1.1446716727	 0.07575
177.5798	278.616	385.476	388.3563	411.4064	462.5111	560.9424	574.8557	616.1288	698.0998	765.3577	829.3308	851.1166	907.9187	919.8581	951.2403	966.6365	974.8764	992.9088	1047.5666	1057.9068	1074.28	1105.4659	1127.0945	1141.0434	1150.8394	1167.754	1182.7271	1217.4287	1224.7455	1236.2368	1260.1422	1298.8999	1321.4878	1372.4105	1419.9293	1446.7035	1490.5323	1502.3048	1513.8742	1549.4074	2952.5105	3018.8545	3055.4854	3061.4986	3074.9328	3102.2958	3125.6934	3126.9166	3140.7459	3143.4919
C1C2CC11OCOCC21	C1[C@H]2C[C@]31OCOC[C@H]23	
InChI=1S/C7H10O2/c1-5-2-7(1)6(5)3-8-4-9-7/h5-6H,1-4H2	InChI=1S/C7H10O2/c1-5-2-7(1)6(5)3-8-4-9-7/h5-6H,1-4H2/t5-,6-,7-/m1/s1
