19
gdb 46	2.9353513	1.2258554	0.931439	1.6729	79.69	-0.19557	0.02861	0.22418	1299.7739	0.15552	-422.588418	-422.578579	-422.577635	-422.623201	35.061	
C	 1.3439470887	-0.6473412014	-0.9665084148	-0.369835
C	 1.1065750846	 0.1635487541	 0.3206693979	-0.323942
C	 1.7016323096	 1.5387405211	 0.2687024927	 0.160393
C	 2.770827112	 2.0289747398	 0.9509787122	-0.121211
O	 3.0293523821	 3.3164257666	 0.6074520961	-0.186567
C	 2.0950653514	 3.6913639887	-0.3236997013	 0.289263
C	 2.1567326133	 5.068836605	-0.8703082222	-0.497833
C	 1.2691246642	 2.6352312309	-0.5600175826	 0.098999
O	 0.2416254863	 2.6375824287	-1.4637330286	-0.449565
H	 0.865376155	-1.6298613363	-0.9068773101	 0.111785
H	 0.9433231834	-0.1242476497	-1.840584022	 0.12163
H	 2.4144197525	-0.79535253	-1.1362499845	 0.126016
H	 0.024624954	 0.2297407848	 0.5097685758	 0.094441
H	 1.5206056254	-0.3768541826	 1.1786997382	 0.110692
H	 3.4248868736	 1.5972486612	 1.6914103123	 0.129037
H	 2.1075408611	 5.8227818458	-0.0760361459	 0.131859
H	 3.0790324564	 5.2477067561	-1.4363142514	 0.13239
H	 1.3099047962	 5.2225002048	-1.5432897241	 0.144299
H	-0.3906433597	 1.9574734627	-1.2127779279	 0.298148
75.4751	108.6473	128.1836	168.4148	186.1571	230.1977	248.9732	284.4639	316.2719	425.5395	493.0154	567.177	619.5587	698.2577	714.3671	731.3864	753.8706	797.5584	938.9203	963.7366	1023.0014	1065.3068	1073.0048	1087.5228	1180.7444	1194.5815	1243.3543	1282.3029	1301.6932	1317.6502	1357.7672	1408.509	1412.9001	1455.8994	1475.8054	1487.5337	1493.009	1496.0812	1511.0332	1605.4819	1716.5708	2993.7097	3023.0784	3037.5443	3063.4117	3070.5524	3109.029	3114.6924	3127.7741	3265.8799	3831.094
CCC1=COC(C)=C1O	CCc1coc(C)c1O	
InChI=1S/C7H10O2/c1-3-6-4-9-5(2)7(6)8/h4,8H,3H2,1-2H3	InChI=1S/C7H10O2/c1-3-6-4-9-5(2)7(6)8/h4,8H,3H2,1-2H3
