19
gdb 196	2.692172	2.0336339	1.6008178	0.9164	74.16	-0.23661	0.08696	0.32356999999999997	906.7632	0.159859	-422.532465	-422.525668	-422.524724	-422.563127	28.317	
C	 0.8591504212	 1.4637327259	-0.3575389205	-0.38179
C	 1.2284336818	-0.0029013547	-0.5203741829	-0.050798
C	 0.4507255716	-1.0590881044	-1.3111386591	-0.250462
C	-0.735727409	-1.3103180776	-0.3468036121	 0.062429
C	-0.4296541854	-2.1150559735	 0.9360419539	-0.069439
O	 0.5773790429	-1.5391768306	 1.7672448139	-0.266799
C	 0.4937266257	-0.1122937384	 1.9258641868	-0.1657
C	 0.2589138136	 0.4420356149	 0.5525683321	 0.386318
O	-1.0247248579	 0.023446285	 0.1014080107	-0.300385
H	 1.649929399	 2.1144071443	 0.0030550995	 0.116778
H	 0.160060786	 1.929945568	-1.044117675	 0.124577
H	 2.2304714309	-0.2667356287	-0.2028798559	 0.098442
H	 0.0755711121	-0.7079172421	-2.2779466925	 0.105638
H	 1.0631452559	-1.9474054204	-1.4889531575	 0.104549
H	-1.6266841963	-1.7230114354	-0.8316827342	 0.076359
H	-1.3780725157	-2.1922213806	 1.4911350644	 0.096216
H	-0.0814119189	-3.1279906884	 0.7074203899	 0.105493
H	-0.32239137	 0.155502931	 2.6117198558	 0.099761
H	 1.4476016426	 0.1976694557	 2.3613605127	 0.108813
205.0283	238.3576	322.3519	352.6572	381.9558	462.8219	492.6991	587.0961	652.5306	771.304	788.822	806.0067	846.5596	869.1989	886.8835	907.2656	940.5486	969.862	995.1808	1015.9465	1028.5366	1052.5276	1088.0469	1095.7826	1110.7183	1127.2795	1197.2297	1216.3262	1242.9876	1266.9304	1297.2797	1299.8212	1346.9093	1350.9236	1360.3536	1397.8488	1422.0756	1472.4411	1480.8177	1485.5036	1492.483	2979.7399	3006.8137	3046.8326	3066.2216	3073.3294	3093.6823	3099.5093	3124.4287	3177.0013	3216.1553
C1C2CC3COCC12O3	C1[C@@H]2C[C@H]3COC[C@@]12O3	
InChI=1S/C7H10O2/c1-5-2-7(5)4-8-3-6(1)9-7/h5-6H,1-4H2	InChI=1S/C7H10O2/c1-5-2-7(5)4-8-3-6(1)9-7/h5-6H,1-4H2/t5-,6-,7-/m0/s1
