19
gdb 186	3.6800244	1.3074072	1.2324778	3.2018	74.71	-0.23123	0.08069	0.31192	1083.0399	0.157623	-422.52204	-422.514341	-422.513397	-422.554623	29.672	
C	 2.0768038792	-0.0837839533	-1.0631822371	-0.338832
C	 1.2694242253	 1.092993026	-0.5025599672	 0.033363
O	 0.9412921254	 0.7555603786	 0.8478194643	-0.241682
C	 0.1136729114	 0.234459969	-0.1933183959	-0.035924
C	 0.8265869909	-0.9989868835	-0.7990785825	 0.436679
C	 0.1325574991	-1.5811540334	-2.0367222581	-0.294187
C	-0.6473589463	-2.7600427804	-1.4383753246	-0.236652
C	 0.3251162868	-3.2437611109	-0.3569587846	-0.067541
O	 1.0365963818	-2.0853209554	 0.0834332919	-0.303988
H	 2.3258780883	-0.0035717939	-2.1246314048	 0.101916
H	 2.9652757963	-0.3392200135	-0.4830742835	 0.120108
H	 1.3091830927	 2.1433387799	-0.7639317122	 0.103195
H	-0.9486332614	 0.4528926895	-0.1419731652	 0.093669
H	-0.4959986874	-0.8506703881	-2.5529417434	 0.106153
H	 0.883616652	-1.9410623189	-2.7488528715	 0.107833
H	-1.5821958446	-2.4130458366	-0.985356389	 0.109491
H	-0.8933262692	-3.5351658641	-2.1679142669	 0.104768
H	-0.174917529	-3.6981895333	 0.5045976046	 0.107138
H	 1.0360015388	-3.9786896778	-0.7630757245	 0.094494
57.7209	138.069	183.4838	257.1429	365.1807	408.9248	454.4828	566.8379	605.7594	730.2501	801.064	823.7214	860.2833	871.0935	884.1154	894.8402	929.3579	951.2395	962.9794	996.274	1004.9301	1032.9171	1048.2206	1109.276	1135.7434	1157.6225	1195.5371	1195.8907	1216.1442	1226.2655	1251.3112	1254.7154	1304.2939	1326.658	1338.2308	1383.1834	1392.9408	1464.1174	1485.1948	1496.4034	1531.9312	2992.3566	3042.4843	3048.9307	3066.3319	3069.0282	3098.2654	3110.9905	3132.0662	3161.4428	3197.5943
C1C2OC2C11CCCO1	C1[C@@H]2O[C@@H]2[C@]21CCCO2	
InChI=1S/C7H10O2/c1-2-7(8-3-1)4-5-6(7)9-5/h5-6H,1-4H2	InChI=1S/C7H10O2/c1-2-7(8-3-1)4-5-6(7)9-5/h5-6H,1-4H2/t5-,6-,7+/m0/s1
