19
gdb 87	3.9257447	1.0072401	0.8506545	2.1066	77.53	-0.2575	0.05721	0.31471	1362.0012	0.156857	-422.529829	-422.521162	-422.520218	-422.563399	32.616	
C	 0.0306036239	 0.0372311388	 0.4166376634	-0.453254
C	 1.2060523377	 0.0188437585	 0.1695230826	 0.309178
C	 2.6346634564	-0.007730927	-0.109211443	-0.384476
C	 3.1325442085	-1.3776290732	-0.5682635491	 0.216878
O	 4.5377230391	-1.3119546272	-0.6194705497	-0.24952
C	 5.105789478	-2.5420635396	-1.0544056427	-0.081147
C	 4.534718639	-2.9435681475	-2.416093492	-0.207379
C	 3.0074312908	-2.9101815359	-2.3302368289	-0.076895
O	 2.5707350351	-1.6546871595	-1.8238953274	-0.243451
H	-1.0100483724	 0.0566193329	 0.6253829916	 0.194243
H	 2.8907568928	 0.7132661861	-0.8935436377	 0.146157
H	 3.2048972744	 0.2688055114	 0.7840218251	 0.14075
H	 2.8318787442	-2.167713855	 0.1472340944	 0.063438
H	 6.1870461013	-2.387809781	-1.0913070555	 0.113259
H	 4.8982906614	-3.3303524711	-0.3106456437	 0.090612
H	 4.8711234487	-2.2307843468	-3.176074104	 0.116176
H	 4.8850730363	-3.9417650385	-2.7013014271	 0.099713
H	 2.5376701587	-3.0294780293	-3.3095621746	 0.114115
H	 2.6459806861	-3.7222379162	-1.6766215416	 0.091604
63.8113	100.6218	177.0351	257.706	295.8452	336.9527	346.4045	401.2853	477.322	523.6228	558.76	617.8751	646.7605	653.4121	829.2113	871.468	899.7559	928.8927	960.0945	987.7834	1021.204	1047.7947	1071.6625	1097.9861	1161.3638	1173.462	1236.1969	1240.7508	1264.4992	1304.8142	1322.2216	1369.8071	1375.9298	1410.781	1417.1357	1422.2967	1458.6769	1468.5048	1497.0835	1507.1591	2245.545	2916.0426	2962.4385	2970.2924	3043.9091	3046.6034	3088.4589	3091.0828	3095.6505	3100.9231	3507.6198
C#CCC1OCCCO1	C#CCC1OCCCO1	
InChI=1S/C7H10O2/c1-2-4-7-8-5-3-6-9-7/h1,7H,3-6H2	InChI=1S/C7H10O2/c1-2-4-7-8-5-3-6-9-7/h1,7H,3-6H2
