19
gdb 219	2.7268741	1.9848846	1.8721664	1.2699	73.02	-0.23565	0.08023	0.31588	864.8454	0.161393	-422.555962	-422.54965	-422.548706	-422.586196	26.787	
C	 0.4498134061	-1.6735691549	-2.8382175221	-0.243899
C	 1.3122379319	-0.9443399265	-1.7689835225	-0.081093
C	 0.6325776077	-1.0900198871	-0.3910116626	-0.226226
C	-0.6593939862	-0.2529317817	-0.4588823117	 0.058617
C	-0.2998207592	 1.2311253994	-0.4628189869	-0.058322
O	 0.5990973428	 1.5043412599	-1.5424941586	-0.281946
C	 0.7753105025	 0.392219174	-2.3795292572	 0.129927
C	-0.4786170885	-0.4361287575	-2.7939920437	 0.075981
O	-1.3664348788	-0.5267651236	-1.6758494407	-0.286972
H	 0.9638026878	-1.7726473585	-3.7983552176	 0.098995
H	-0.0063804976	-2.6255403937	-2.5580319901	 0.102099
H	 2.3885295871	-1.1234421881	-1.7420875558	 0.065372
H	 0.4163502962	-2.1407562214	-0.1720529542	 0.102163
H	 1.2714280263	-0.7075118953	 0.4122518486	 0.103399
H	-1.3498424109	-0.4764217917	 0.3581114666	 0.08135
H	-1.2114276798	 1.8293122217	-0.5898672323	 0.101923
H	 0.1838411308	 1.5259776978	 0.4780467278	 0.095575
H	 1.3550609048	 0.7253434181	-3.2418170127	 0.087252
H	-1.073785373	-0.1564738408	-3.6654026541	 0.075806
203.3663	303.4777	364.1142	410.3642	443.3485	517.9427	568.7207	645.7405	738.3732	791.476	827.9685	838.9032	869.3626	876.6563	919.6676	936.286	956.3867	998.0485	1007.2741	1057.004	1068.5998	1076.5378	1108.9827	1125.56	1153.9063	1173.858	1209.379	1220.518	1241.0793	1249.0407	1283.8528	1293.9352	1328.1111	1343.1537	1359.1045	1370.4445	1390.0889	1417.7298	1475.1824	1492.3401	1514.9582	3005.2123	3038.7418	3044.9644	3058.1474	3081.0902	3086.0827	3089.7455	3090.7829	3106.7224	3120.6065
C1C2CC3COC2C1O3	C1[C@@H]2C[C@H]3CO[C@@H]2[C@@H]1O3	
InChI=1S/C7H10O2/c1-4-2-6-7(4)8-3-5(1)9-6/h4-7H,1-3H2	InChI=1S/C7H10O2/c1-4-2-6-7(4)8-3-5(1)9-6/h4-7H,1-3H2/t4-,5-,6+,7-/m0/s1
