19
gdb 79	3.0275623	1.2341043	1.0262171	0.4794	77.67	-0.24564	0.03176	0.2774	1200.0186	0.157093	-422.509138	-422.500534	-422.49959	-422.542395	32.644	
C	 0.2149919121	 0.3962651796	 0.824224838	-0.463525
C	 1.2601885099	 0.0900017261	 0.3150421407	 0.336408
C	 2.5470438785	-0.2584617136	-0.2997351584	-0.070895
C	 3.1662673281	 0.9736652434	-1.0125344865	-0.235602
C	 4.69290583	 0.9219430395	-1.1487129074	-0.080694
O	 5.3541116375	 1.3593614914	 0.0274779176	-0.243411
C	 5.4160903384	 0.4120831395	 1.072952159	-0.06825
C	 4.056021545	-0.0600101462	 1.5825513879	-0.096556
O	 3.4187716625	-0.8982258192	 0.6265610661	-0.250715
H	-0.7135542303	 0.6521843811	 1.2719858944	 0.199852
H	 2.3707990747	-1.0381838426	-1.0500412983	 0.115109
H	 2.703878734	 1.0549419264	-2.0027401539	 0.110654
H	 2.9147070434	 1.8903292346	-0.4714081094	 0.123322
H	 5.0320278595	-0.0846593678	-1.4371239008	 0.098175
H	 5.0041945534	 1.6207321705	-1.9314358614	 0.106996
H	 5.9878124097	-0.4759777965	 0.7569721776	 0.094868
H	 5.9638118836	 0.9006112888	 1.8867506384	 0.104788
H	 4.20685108	-0.6721248415	 2.4795631145	 0.108886
H	 3.4190359899	 0.7899802364	 1.8594327819	 0.11059
65.3119	134.8115	213.5551	216.9973	303.6681	320.1956	354.1581	398.0981	510.0807	523.3495	567.8293	618.1604	628.9368	673.4894	755.1871	845.9243	859.6195	934.5999	978.3799	985.9726	1025.2944	1051.8979	1087.949	1119.3887	1135.9571	1173.0865	1232.7317	1272.4993	1305.3886	1314.7171	1339.6508	1371.5473	1376.3375	1394.485	1400.3135	1420.6771	1472.6837	1477.6794	1493.0203	1495.7897	2229.6932	2975.4473	2995.0622	3020.9899	3037.1716	3046.9409	3070.6398	3072.2559	3079.3244	3098.5144	3502.2259
C#CC1CCOCCO1	C#C[C@H]1CCOCCO1	
InChI=1S/C7H10O2/c1-2-7-3-4-8-5-6-9-7/h1,7H,3-6H2	InChI=1S/C7H10O2/c1-2-7-3-4-8-5-6-9-7/h1,7H,3-6H2/t7-/m0/s1
