19
gdb 103	5.0081221	0.8584734	0.8250213	0.2488	76.23	-0.23972	0.09202	0.33174	1425.6677	0.156616	-422.459956	-422.451939	-422.450994	-422.493542	30.087	
C	 2.4998401634	-0.6866672785	-0.9101867201	-0.275236
C	 2.2307628399	-2.0010418341	-1.6029247851	 0.099558
C	 3.2363197462	-2.6792601735	-2.4282047891	-0.179561
O	 2.1558666812	-1.9669355136	-3.0339424371	-0.240154
C	 1.2828131296	 0.2255062281	-0.9237047924	 0.037508
C	 0.1525773417	 0.0063420693	 0.1270743977	 0.04419
C	-0.3074755463	 1.4678074715	-0.0763243267	-0.222462
C	 1.2317585588	 1.427631671	 0.0606063343	 0.029075
O	 1.0734869652	 0.4780193403	 1.1907441049	-0.314823
H	 2.79552317	-0.8690861867	 0.1280417692	 0.122328
H	 3.3351923627	-0.1880819609	-1.4163916457	 0.09928
H	 1.4589385174	-2.6222275393	-1.143474216	 0.090699
H	 4.2203279108	-2.2274298282	-2.5494870848	 0.112147
H	 3.2073717462	-3.7619648163	-2.5436259622	 0.113402
H	 0.9396811897	 0.4350300574	-1.9414450062	 0.087958
H	-0.4422737008	-0.8830640332	 0.3387231798	 0.093809
H	-0.7352480634	 1.7473903919	-1.0422058399	 0.099015
H	-0.8323841178	 1.9056701762	 0.7727894829	 0.109537
H	 1.9403568656	 2.2466143185	 0.1911221965	 0.09373
60.0558	71.7522	132.577	245.0583	318.873	367.6059	460.6891	556.8276	655.1732	743.7585	766.4336	792.4226	826.8291	864.2101	885.1563	890.8868	917.2929	959.991	989.4601	1026.1819	1033.8565	1079.7876	1092.5256	1127.7683	1140.4571	1145.9812	1151.3983	1158.9449	1172.3768	1195.2486	1211.0895	1238.8189	1264.4935	1284.3283	1295.0511	1317.1863	1410.6081	1446.463	1472.5456	1489.1299	1531.1108	3035.2356	3063.1129	3071.3736	3079.7731	3084.8231	3097.8419	3107.9723	3114.791	3153.6681	3166.144
C(C1CO1)C1C2CC1O2	C([C@@H]1CO1)[C@H]1[C@@H]2C[C@H]1O2	
InChI=1S/C7H10O2/c1(4-3-8-4)5-6-2-7(5)9-6/h4-7H,1-3H2	InChI=1S/C7H10O2/c1(4-3-8-4)5-6-2-7(5)9-6/h4-7H,1-3H2/t4-,5-,6-,7+/m1/s1
