19
gdb 109	4.9961968	0.876882	0.8357866	1.2753	75.95	-0.24486	0.08496	0.32982	1417.8246	0.155904	-422.480656	-422.472352	-422.471408	-422.514455	31.093	
C	 0.9094273381	-1.2595917527	-4.4326841666	-0.283568
C	 0.612593166	-2.6710853838	-3.9631276787	-0.288373
C	 1.0568950546	-1.6380263022	-2.9811447132	 0.139314
O	 0.0920550884	-1.2057636705	-2.0671199	-0.264348
C	 0.3003332369	 0.1079481272	-1.6016741485	 0.113931
C	-0.8305276215	 0.5085635246	-0.6018676247	-0.284886
C	 0.2388379209	 0.6469794536	 0.4883582132	 0.034885
O	 1.2056407103	 1.5973406625	 0.0152170865	-0.245474
C	 1.3108692077	 0.2427330437	-0.4324147681	-0.01091
H	 1.8033448295	-1.0778103629	-5.0188945368	 0.11488
H	 0.0582610658	-0.6405234869	-4.6931181902	 0.122142
H	-0.4298023235	-2.963694279	-3.9118509404	 0.127132
H	 1.298918216	-3.4686824683	-4.2235234605	 0.115156
H	 2.0655084156	-1.7120620423	-2.575256367	 0.086628
H	 0.4889598355	 0.7988606805	-2.4320445269	 0.08202
H	-1.4096581829	 1.4071878614	-0.8241848259	 0.109451
H	-1.4936867463	-0.3450806007	-0.4452570697	 0.123095
H	 0.1462429015	 0.5325453981	 1.5618792347	 0.104875
H	 2.2448833975	-0.2798377322	-0.2599362272	 0.10405
56.7493	76.1068	133.8453	193.8581	316.2503	371.3754	420.5427	469.6258	539.2289	749.441	758.0761	815.6185	823.3958	847.4028	850.0821	877.2139	921.4864	966.6315	974.2209	988.0532	998.6808	1039.3151	1051.1715	1064.4837	1072.5383	1118.487	1128.0448	1179.8104	1193.1563	1197.4639	1228.0811	1232.5913	1241.8403	1243.0515	1284.9105	1352.0355	1387.4943	1409.6662	1454.2619	1463.7034	1497.7205	3036.3198	3072.7891	3102.3215	3136.1944	3136.9421	3143.3504	3179.3657	3195.662	3221.4034	3236.0075
C1CC1OC1CC2OC12	C1CC1O[C@H]1C[C@@H]2O[C@H]12	
InChI=1S/C7H10O2/c1-2-4(1)8-5-3-6-7(5)9-6/h4-7H,1-3H2	InChI=1S/C7H10O2/c1-2-4(1)8-5-3-6-7(5)9-6/h4-7H,1-3H2/t5-,6-,7+/m0/s1
