19
gdb 235	3.1092945	1.8645797	1.6288368	1.731	73.02	-0.24632	0.09198	0.33830000000000005	895.5428	0.161476	-422.552436	-422.546132	-422.545187	-422.582693	26.766	
C	 0.9212587859	 1.0044808262	-1.1786172067	-0.255174
C	 0.1452324305	 1.2807628784	 0.1406357293	-0.062761
C	 1.2973096021	 1.6162454823	 1.1011931574	-0.231983
C	 2.236114626	 0.4012238604	 0.7915956334	 0.133497
O	 2.3154496556	-0.499977173	 1.8998096696	-0.277084
C	 1.2367571016	-1.4044938057	 1.945307686	 0.018916
O	 0.0092384566	-0.8150626713	 1.5844482603	-0.271483
C	 0.0638421276	-0.2717734328	 0.2785499802	 0.142008
C	 1.4662828561	-0.2155828439	-0.396714362	-0.105177
H	 0.2774309385	 0.7060656329	-2.0095736158	 0.10375
H	 1.6356479416	 1.7613401003	-1.512574444	 0.099482
H	-0.7465626888	 1.9055833905	 0.1681156529	 0.066339
H	 1.7600253057	 2.5791618509	 0.8667554942	 0.093339
H	 1.0083254313	 1.6076893912	 2.1528225313	 0.115095
H	 3.2637180938	 0.6903630514	 0.5628721727	 0.081086
H	 1.4389397237	-2.2673137299	 1.2881670567	 0.082859
H	 1.1422959681	-1.7455417962	 2.9788239947	 0.117089
H	-0.7144298786	-0.7202213693	-0.3463739518	 0.077582
H	 1.9160632827	-1.0739121824	-0.8946101684	 0.072618
216.7262	283.532	361.9522	422.5383	445.8657	489.9844	574.7383	655.7185	754.2935	803.2663	833.6648	848.9515	875.7533	904.4832	946.3272	957.0334	958.9186	990.45	1009.802	1029.3991	1044.4399	1073.2291	1097.0188	1115.3251	1151.9034	1190.2413	1196.3589	1205.9727	1216.1716	1236.6114	1269.6206	1283.282	1290.1968	1325.613	1333.3913	1363.6798	1381.8253	1443.989	1486.7879	1507.4765	1530.4418	2952.3246	3058.0631	3062.7659	3065.203	3088.5638	3101.759	3116.7549	3120.7527	3125.3917	3131.3619
C1C2CC3OCOC2C13	C1[C@@H]2C[C@H]3OCO[C@@H]2[C@@H]13	
InChI=1S/C7H10O2/c1-4-2-6-5(1)7(4)9-3-8-6/h4-7H,1-3H2	InChI=1S/C7H10O2/c1-4-2-6-5(1)7(4)9-3-8-6/h4-7H,1-3H2/t4-,5+,6-,7+/m1/s1
