19
gdb 374	4.7564015	1.0139044	0.9845307	0.5017	75.93	-0.24202	0.0579	0.29992	1267.8936	0.155973	-422.501747	-422.493502	-422.492558	-422.535382	31.081	
C	 4.4979696306	-1.2386753187	 0.6344763839	-0.269119
O	 3.3596874446	-2.1110362141	 0.5566194851	-0.269115
C	 3.1694376815	-0.7230909549	 0.3166493749	 0.440661
C	 2.1754207432	 0.101419748	 1.1398062608	-0.373974
C	 1.3709359499	 0.3417392916	-0.1678951344	 0.451471
C	-0.0582760561	-0.2132644647	-0.3456053114	-0.343598
C	-0.4373572388	 1.2519858247	-0.6313463179	-0.07615
O	 0.9292945644	 1.6805055496	-0.4462921808	-0.315234
C	 2.5634777471	-0.2144299274	-0.9946672842	-0.373974
H	 4.9104824507	-1.0985262691	 1.6332857071	 0.113919
H	 5.2360405891	-1.363506473	-0.1574182746	 0.113919
H	 1.6681666572	-0.4220281786	 1.9541745526	 0.112765
H	 2.6006576659	 1.0384618377	 1.5118381954	 0.118354
H	-0.185618368	-0.9046548738	-1.1803947956	 0.114912
H	-0.5006282302	-0.6482582752	 0.5522895507	 0.114912
H	-0.7975428498	 1.4651742804	-1.6445835367	 0.104565
H	-1.1133330618	 1.7222039249	 0.0923830904	 0.104565
H	 2.3420003678	-0.9704787579	-1.7521883108	 0.112765
H	 3.1380879696	 0.601033483	-1.4442499978	 0.118354
41.6988	68.794	236.4158	273.0153	309.4647	350.0017	380.6194	424.9909	452.6517	642.9521	779.1187	797.622	815.2297	849.2763	865.6626	887.2811	913.9224	917.4879	962.9679	982.5963	1026.7209	1045.3344	1119.2045	1124.2117	1139.3763	1140.3733	1165.591	1182.221	1205.5385	1207.9521	1237.1804	1239.6365	1255.6913	1302.4219	1358.7776	1432.4207	1443.7166	1471.1843	1488.5139	1531.6042	1539.3144	3021.1086	3052.2716	3057.8032	3061.43	3075.7327	3077.3834	3115.453	3115.7755	3132.2229	3160.528	41.7015	68.7925	236.4165	273.0159	309.4655	350.0021	380.6196	424.9912	452.652	642.9522	779.1187	797.623	815.2296	849.277	865.6627	887.2814	913.9225	917.4881	962.9685	982.5967	1026.7212	1045.3344	1119.205	1124.2117	1139.3766	1140.3739	1165.5915	1182.2216	1205.539	1207.9523	1237.1806	1239.6367	1255.6913	1302.4219	1358.7782	1432.4209	1443.7164	1471.1844	1488.514	1531.6051	1539.3149	3021.1086	3052.2717	3057.8033	3061.4301	3075.733	3077.3834	3115.453	3115.7755	3132.223	3160.5282
C1OC11CC2(CCO2)C1	C1O[C@]21C[C@]1(CCO1)C2	
InChI=1S/C7H10O2/c1-2-8-6(1)3-7(4-6)5-9-7/h1-5H2	InChI=1S/C7H10O2/c1-2-8-6(1)3-7(4-6)5-9-7/h1-5H2/t6-,7-
