19
gdb 117	2.8508737	1.7731714	1.4796509	1.806	73.84	-0.23679	0.08311	0.3199	956.3763	0.159258	-422.519755	-422.512591	-422.511647	-422.550937	29.079	
C	 0.0385265944	-1.6527567099	 1.3253171666	-0.369256
C	 0.871999947	-2.3670135798	 0.2830640502	 0.214092
C	 0.1306641882	-3.6276895314	-0.1970715302	-0.290756
C	-1.078869764	-2.7359588262	-0.6609951295	-0.290147
C	-0.3229636618	-1.5182821095	-0.1251013618	 0.393035
O	-0.1791646753	-0.2927174653	-0.7637478201	-0.28699
C	 1.111815895	-0.2026036404	-1.3526367394	-0.002133
O	 2.1493823607	-0.4787793449	-0.4520334792	-0.237956
C	 2.2344200912	-1.8748103349	-0.1201324108	-0.183046
H	-0.5827274886	-2.2274422778	 2.0082899953	 0.102642
H	 0.4862563476	-0.7590640111	 1.7446986372	 0.129477
H	 0.6254244771	-4.1234883385	-1.0360539703	 0.104254
H	-0.0802217436	-4.374584456	 0.5744017619	 0.101752
H	-1.175067817	-2.7189099239	-1.7489212388	 0.110179
H	-2.0611831215	-2.9370185286	-0.2223863081	 0.100129
H	 1.1745554806	-0.8849897116	-2.2196393	 0.078049
H	 1.2285800379	 0.8337132823	-1.6734322311	 0.119872
H	 2.592427308	-2.4400822748	-0.9963715433	 0.092176
H	 2.994361274	-1.9425617578	 0.6640261812	 0.114625
144.5866	193.3466	309.6478	336.0545	402.0775	410.6722	495.218	524.0827	561.1295	678.3839	729.8038	777.9477	781.278	874.8932	919.5435	923.2256	938.8081	973.4846	994.1805	997.531	1033.4241	1076.4511	1079.6901	1122.3921	1170.7481	1180.4752	1211.9372	1234.5122	1244.3584	1254.0919	1280.5779	1316.209	1322.9456	1386.4866	1400.6072	1441.712	1474.1756	1478.1296	1495.6515	1508.9187	1511.334	2937.379	2971.9131	3046.8158	3054.1388	3075.1907	3096.9307	3110.1514	3117.1642	3121.4641	3219.9264
C1C23CCC12OCOC3	C1[C@@]23CC[C@@]12OCOC3	
InChI=1S/C7H10O2/c1-2-7-3-6(1,7)4-8-5-9-7/h1-5H2	InChI=1S/C7H10O2/c1-2-7-3-6(1,7)4-8-5-9-7/h1-5H2/t6-,7-/m1/s1
