19
gdb 297	2.6057835	2.106359	1.8345267	1.2065	72.86	-0.23745	0.08091	0.31836	862.3263	0.161229	-422.555035	-422.548685	-422.54774	-422.585352	26.768	
C	 2.1843078239	 1.3743307619	-0.5453962069	-0.244489
C	 2.3371070706	 1.8836676927	 0.9166334096	-0.094959
C	 3.3039592996	 0.9513235062	 1.6456745435	-0.082901
O	 3.1441542896	-0.3936632054	 1.1833724862	-0.272911
C	 1.7951176559	-0.7247866426	 0.8800390242	 0.080551
C	 0.9170955548	-0.7063625369	 2.1395001291	-0.097448
O	 0.6037701208	 0.6736494286	 2.3681862956	-0.275747
C	 0.8703848286	 1.3774353349	 1.1689494174	 0.140419
C	 1.1348975458	 0.3890845841	 0.0175212511	-0.082611
H	 1.7262256399	 2.1166669099	-1.2029504046	 0.100245
H	 3.0716675358	 0.9530934835	-1.0220302379	 0.110387
H	 2.5703754004	 2.9337612718	 1.1043271374	 0.067594
H	 4.3445610378	 1.2186336394	 1.4351969584	 0.105737
H	 3.1405200989	 1.0110036659	 2.7306929909	 0.107033
H	 1.8254560799	-1.7043953987	 0.3975997775	 0.084521
H	-0.0075909538	-1.2831972264	 1.9898434007	 0.094389
H	 1.4472051938	-1.1065377959	 3.0088135197	 0.115438
H	 0.105538305	 2.1417060416	 1.0167218358	 0.076818
H	 0.3180626726	 0.0175957955	-0.6042178775	 0.067935
188.9574	276.0575	370.0679	404.9811	409.236	540.695	598.7922	672.2827	750.1847	797.5759	825.0238	842.735	868.6797	899.307	916.4833	944.9839	982.2268	985.4379	1008.9961	1036.9703	1060.5075	1061.2882	1092.6358	1121.1838	1147.5122	1164.5847	1216.8978	1228.6199	1238.231	1253.3897	1275.6225	1290.9763	1310.3441	1319.7964	1344.3532	1363.0136	1386.3133	1406.0175	1487.1902	1504.8899	1507.8613	2996.0411	3010.2004	3066.8407	3073.877	3082.1739	3085.2913	3087.0969	3092.5896	3100.651	3124.4307
C1C2COC3COC2C13	C1[C@@H]2CO[C@H]3CO[C@@H]2[C@@H]13	
InChI=1S/C7H10O2/c1-4-2-8-6-3-9-7(4)5(1)6/h4-7H,1-3H2	InChI=1S/C7H10O2/c1-4-2-8-6-3-9-7(4)5(1)6/h4-7H,1-3H2/t4-,5+,6+,7+/m1/s1
