19
gdb 150	2.5346555	2.0395034	1.4286935	2.2839	74.04	-0.22575	0.08128	0.30703	953.2803	0.159348	-422.512278	-422.505224	-422.50428	-422.543431	28.564	
C	 1.9773399776	-0.4837229045	 1.6727212789	-0.193166
C	 2.7592300084	-0.3264922856	 0.3677261967	-0.07552
O	 1.9888538393	-0.6853482237	-0.7723003407	-0.249118
C	 1.1219905895	 0.2698471079	-1.2869415088	 0.098084
C	-0.3510824049	 0.2515715901	-1.0401356328	 0.061682
O	-0.6653159612	-0.1930812014	 0.275900162	-0.296787
C	 0.0078140712	 0.9663641678	 0.8497142539	 0.136909
C	 0.9848136007	 0.6472919401	 1.9702421503	-0.233078
C	 0.5031913381	 1.4175155445	-0.5279378438	-0.240358
H	 1.4425697111	-1.4374032372	 1.6198057985	 0.124727
H	 2.6883082412	-0.5560993797	 2.5051083527	 0.090063
H	 3.1538614949	 0.6951747002	 0.2623559544	 0.08937
H	 3.6112198609	-1.0139356986	 0.3623283262	 0.104908
H	 1.3694707369	 0.5529156782	-2.3113808108	 0.094801
H	-1.123970909	 0.1763500322	-1.797108082	 0.102546
H	-0.7574218504	 1.6651071934	 1.2122829193	 0.083355
H	 1.5259429017	 1.5768100411	 2.1967700644	 0.099871
H	 0.4146737846	 0.3971005545	 2.8735292935	 0.105842
H	 0.5794165094	 2.4491229707	-0.8468056019	 0.095869
149.9243	194.1271	279.9912	326.6502	363.5937	422.0649	548.5758	612.6035	631.1656	726.5131	775.0441	805.0328	815.5722	858.03	904.1016	936.2701	958.8093	970.0659	996.1905	1022.2508	1046.0374	1067.1768	1087.523	1101.1314	1110.0553	1152.7696	1213.2792	1234.3593	1256.2368	1265.7672	1296.0746	1324.8209	1352.1736	1367.4868	1386.3568	1402.3161	1412.4439	1435.594	1466.2815	1475.3087	1494.6604	2995.2907	3007.3554	3021.5002	3033.1141	3054.4477	3075.2097	3090.8391	3094.7448	3172.685	3192.4998
C1COC2C3OC(C1)C23	C1CO[C@H]2[C@H]3O[C@@H](C1)[C@@H]23	
InChI=1S/C7H10O2/c1-2-4-5-6(8-3-1)7(5)9-4/h4-7H,1-3H2	InChI=1S/C7H10O2/c1-2-4-5-6(8-3-1)7(5)9-4/h4-7H,1-3H2/t4-,5-,6+,7-/m0/s1
