19
gdb 99	4.1922718	0.9760545	0.8867899	3.0936	75.46	-0.22994	0.07647	0.30641	1331.3736	0.156303	-422.48212	-422.473754	-422.47281	-422.516095	30.968	
C	-0.8355793839	-0.3100030535	-1.2403365754	-0.366474
C	-0.1251134587	 0.1010572813	 0.0311748366	 0.110203
C	 0.8250901675	 1.2177175914	 0.0750583646	-0.182788
O	 1.287112915	-0.1350626567	 0.060010436	-0.235356
C	-0.9524886599	-1.8047524601	-1.3521932109	 0.305488
C	-2.0863485819	-2.6320945843	-0.7670784816	-0.3449
C	-1.7733955667	-2.7211463942	-2.2299414836	 0.037723
O	-0.685759884	-3.6169225074	-2.4607270431	-0.288713
C	 0.198160831	-2.7524558794	-1.6916707294	-0.120965
H	-1.8333755824	 0.1466752083	-1.257681066	 0.104198
H	-0.2807233275	 0.0906422147	-2.097870346	 0.106263
H	-0.6325132625	-0.1733552975	 0.9576732699	 0.09626
H	 1.0225721009	 1.7887798141	-0.8315549683	 0.113809
H	 0.9888813618	 1.7573873248	 1.0066879719	 0.11587
H	-1.8875795858	-3.4878218501	-0.1270281766	 0.1158
H	-2.9752871118	-2.0611649106	-0.5131064512	 0.10947
H	-2.4708166093	-2.5430756672	-3.0412108696	 0.102971
H	 0.6901880338	-3.2793549885	-0.8667148135	 0.110261
H	 0.9533437543	-2.2987971649	-2.3430874238	 0.110882
55.3618	62.792	127.6894	266.7691	288.8532	351.0085	377.2393	450.0428	458.2978	699.9702	759.7554	784.9164	846.6914	869.9493	904.981	916.5367	935.1184	964.1816	984.696	1002.37	1018.7189	1056.3169	1066.6363	1080.9006	1097.0669	1133.3651	1154.4239	1158.0686	1167.5485	1205.2856	1266.8981	1286.4761	1293.8815	1320.0279	1337.1873	1411.2215	1445.1215	1463.8079	1483.1541	1516.1713	1530.2863	3020.3293	3030.59	3061.6856	3081.3453	3081.944	3099.651	3108.9153	3168.2687	3172.3996	3200.5253
C(C1CO1)C12CC1OC2	C([C@@H]1CO1)[C@@]12C[C@@H]1OC2	
InChI=1S/C7H10O2/c1(5-3-8-5)7-2-6(7)9-4-7/h5-6H,1-4H2	InChI=1S/C7H10O2/c1(5-3-8-5)7-2-6(7)9-4-7/h5-6H,1-4H2/t5-,6+,7+/m1/s1
