19
gdb 138	3.412196	1.4480336	1.1661331	1.3662	73.86	-0.24801	0.07704	0.32505	1065.4486	0.15931	-422.515562	-422.508342	-422.507398	-422.547269	28.549	
C	 1.6105191244	 0.2713058509	-3.6271686425	-0.074295
C	 2.3357619765	 0.8131963108	-2.3969318917	-0.222977
C	 2.0228595654	 0.0147135773	-1.1123455443	-0.078319
C	 1.4721372635	 0.9433625951	-0.0112320297	 0.042465
O	 0.94334153	 0.1626747628	 1.0584633668	-0.254051
C	 0.1327064499	 0.3510216163	-0.1120704961	 0.008695
C	 0.6143847096	-0.7130177776	-1.1190415769	-0.03123
C	-0.0733267357	-0.8540356586	-2.4738676048	-0.120197
O	 0.2173396435	 0.1889579775	-3.3850759041	-0.239182
H	 1.7411104947	 0.9426358421	-4.4810167648	 0.106925
H	 2.0034169809	-0.719797167	-3.9129339598	 0.084728
H	 3.4159041026	 0.8373876474	-2.5759436361	 0.101131
H	 2.0147780399	 1.8539418412	-2.2666473069	 0.106064
H	 2.8639791648	-0.6153414844	-0.8125763644	 0.078392
H	 1.791006873	 1.9551952874	 0.2171681882	 0.102187
H	-0.8537350786	 0.7798187414	 0.0266609064	 0.103612
H	 0.639124565	-1.6947992361	-0.6361928007	 0.089238
H	 0.2193854604	-1.8198207401	-2.9207000734	 0.089024
H	-1.1620882198	-0.8648364465	-2.3526855654	 0.10779
102.692	148.0988	285.7842	324.6303	377.4544	425.4667	477.1659	539.5952	671.5114	765.5746	777.4516	835.5027	857.3605	858.4745	882.0716	931.2285	952.3456	987.0615	1005.895	1048.0588	1064.5862	1086.1688	1105.9188	1120.4765	1151.735	1200.9021	1221.767	1229.0643	1253.5513	1263.9049	1286.8192	1325.3165	1337.2577	1344.4904	1378.3304	1387.5903	1396.0178	1429.1415	1480.3185	1491.2864	1504.5035	2954.1572	2960.2942	3028.8045	3058.9929	3064.7375	3067.3483	3082.6729	3084.5295	3166.3722	3184.5682
C1CC2C3OC3C2CO1	C1C[C@H]2[C@@H]3O[C@@H]3[C@H]2CO1	
InChI=1S/C7H10O2/c1-2-8-3-5-4(1)6-7(5)9-6/h4-7H,1-3H2	InChI=1S/C7H10O2/c1-2-8-3-5-4(1)6-7(5)9-6/h4-7H,1-3H2/t4-,5+,6+,7-/m1/s1
