19
gdb 259	3.3709353	1.7113378	1.452447	0.4292	73.85	-0.23582	0.07622	0.31204	946.5828	0.159819	-422.526962	-422.520118	-422.519174	-422.558125	27.908	
C	 0.9578466535	-0.8592435348	-0.0234078068	-0.28965
C	 1.0290478435	 0.1714849845	 1.1354511928	-0.137785
C	-0.4285124238	 0.0581688531	 1.6537748504	-0.088394
O	-1.1836532136	 0.0053897138	 0.4012950901	-0.350127
C	-0.1172374876	 0.162081803	-0.521097656	 0.480283
C	-0.2981689917	 0.5083322671	-1.9724177623	-0.384946
C	 1.0481771492	 1.2623616975	-2.2348499824	-0.070993
O	 1.7010933951	 1.5122494735	-0.9635184046	-0.293838
C	 0.7699911371	 1.2737004993	 0.0640359303	 0.111872
H	 1.8604941132	-0.8845731665	-0.6297666345	 0.119027
H	 0.5973149487	-1.8646684118	 0.2043692874	 0.094878
H	 1.8190919843	 0.2017111837	 1.8852340726	 0.076551
H	-0.6044234885	-0.8545504377	 2.232225949	 0.108934
H	-0.7573521356	 0.9249642378	 2.2385255095	 0.106476
H	-0.4229577748	-0.3495522034	-2.6373116255	 0.113498
H	-1.1593142469	 1.1720463548	-2.0966856444	 0.120258
H	 1.7377041683	 0.6673361847	-2.8420227731	 0.112244
H	 0.8786470669	 2.2155639179	-2.7495292412	 0.10801
H	 0.2905069128	 2.1993798436	 0.4098984287	 0.0637
85.4746	262.4466	301.0463	360.9696	410.4981	472.2094	554.0741	648.8105	674.9628	735.7175	826.5084	844.0503	869.0491	893.1584	919.3376	928.3137	936.9678	953.1232	974.101	1007.5562	1024.0436	1077.3042	1108.4253	1119.7454	1136.8682	1162.2731	1184.4125	1208.206	1226.7921	1236.0386	1247.7516	1268.322	1293.4938	1328.7977	1348.8746	1375.0032	1399.3567	1480.8596	1493.4656	1519.3109	1524.5519	3011.6984	3029.9778	3032.4511	3060.0818	3072.7403	3078.2601	3081.6163	3112.0773	3123.4631	3167.0606
C1C2COC11CCOC21	C1[C@@H]2CO[C@@]31CCO[C@H]23	
InChI=1S/C7H10O2/c1-2-8-6-5-3-7(1,6)9-4-5/h5-6H,1-4H2	InChI=1S/C7H10O2/c1-2-8-6-5-3-7(1,6)9-4-5/h5-6H,1-4H2/t5-,6-,7-/m1/s1
