19
gdb 161	3.1750446	1.7748437	1.4502885	0.5411	73.89	-0.24139	0.0718	0.31318999999999997	944.4488	0.160032	-422.53189	-422.525155	-422.524211	-422.562864	27.873	
C	 1.7142787175	-0.618663577	-0.6974658039	-0.303857
C	 2.7172638106	 0.1023892139	-1.6155112158	 0.096201
C	 3.0012590626	 1.0760065738	-0.4151595209	-0.318472
C	 1.4728834425	 0.870866162	-0.2669217614	 0.406503
O	 0.5842196119	 1.2647253655	 0.7212077342	-0.330534
C	-0.6947294548	 1.492736864	 0.0680600248	-0.090145
C	-0.5084223157	 1.2795992772	-1.4671910737	-0.316559
C	 1.0000810348	 1.4983091092	-1.5756406289	 0.122806
O	 1.8438288986	 0.8320563601	-2.519678291	-0.30124
H	 0.9129115652	-1.1784800677	-1.1826015012	 0.09918
H	 2.1805393402	-1.2012691852	 0.0988406718	 0.104145
H	 3.5056922197	-0.3943213863	-2.1751506203	 0.088574
H	 3.6060700678	 0.5981572154	 0.3568808435	 0.108773
H	 3.3653637057	 2.0808392605	-0.6405883025	 0.104304
H	-1.4362928467	 0.8071993573	 0.4902656449	 0.113166
H	-1.0064923019	 2.5170975031	 0.2996449031	 0.112559
H	-0.7832563182	 0.2647894996	-1.7639104859	 0.118369
H	-1.1104837621	 1.9818540473	-2.0471783599	 0.108847
H	 1.2113167322	 2.5759143775	-1.598374227	 0.077377
100.864	237.8044	347.5797	405.8863	468.4525	515.1594	547.5766	602.0249	633.5727	730.3233	804.6492	835.1072	854.3287	885.3085	904.3025	935.7601	942.3899	961.0623	975.8333	1004.978	1029.5652	1040.4373	1108.4984	1119.1582	1130.7819	1153.0975	1195.483	1208.9917	1218.7542	1226.7609	1235.1268	1272.7694	1283.1802	1297.9382	1343.2309	1390.3342	1410.1118	1474.2872	1496.8879	1516.8672	1523.6228	3008.1198	3038.5022	3070.1154	3073.0292	3077.4129	3081.0929	3125.4789	3139.6054	3145.2549	3159.4125
C1C2CC11OCCC1O2	C1[C@@H]2C[C@@]31OCC[C@@H]3O2	
InChI=1S/C7H10O2/c1-2-8-7-3-5(4-7)9-6(1)7/h5-6H,1-4H2	InChI=1S/C7H10O2/c1-2-8-7-3-5(4-7)9-6(1)7/h5-6H,1-4H2/t5-,6-,7-/m0/s1
