19
gdb 276	3.4086943	1.3980097	1.2644349	0.8843	74.11	-0.24074	0.07226	0.313	1059.1757	0.158133	-422.536466	-422.528801	-422.527856	-422.568935	29.505	
C	 0.0052654447	 1.5433259468	 0.0787949281	-0.069985
C	-0.2605927867	 0.0374954234	-0.1036605464	-0.356644
C	 1.277627793	-0.09873658	-0.1095651834	 0.440376
C	 1.9795891919	-0.6895697063	-1.3454503865	-0.285457
C	 3.4118260897	-1.0535144809	-0.8855871208	-0.250067
C	 3.2455814631	-1.3328044671	 0.5957512824	 0.053574
O	 2.1284619077	-2.1866238131	 0.8913260168	-0.268356
C	 1.9717407274	-0.7708564917	 1.0590201552	-0.011314
O	 1.433953581	 1.3459206318	 0.00885273	-0.327854
H	-0.3559776325	 2.1989584133	-0.722111788	 0.104205
H	-0.3008990407	 1.9646849566	 1.0442200648	 0.103124
H	-0.773016492	-0.4658092072	 0.7179623974	 0.11645
H	-0.7393491634	-0.2369230759	-1.045491085	 0.112419
H	 1.4441460279	-1.5903730946	-1.6570866799	 0.118196
H	 1.9618698934	 0.0234852112	-2.1722491769	 0.108151
H	 3.8278288287	-1.9051157327	-1.4321183238	 0.108385
H	 4.0976797999	-0.208167719	-1.0119178322	 0.115707
H	 4.1050803122	-1.4509979316	 1.2502486749	 0.095126
H	 1.7953235947	-0.4195419531	 2.0725006035	 0.093961
72.3923	107.9729	206.1026	295.4647	362.5341	379.8549	438.8884	510.9435	683.183	738.993	786.0236	827.5236	839.3515	864.1521	873.0909	919.5294	941.0246	966.2276	981.2284	996.2205	1020.853	1034.2622	1083.5548	1114.4693	1158.9052	1163.8421	1194.7603	1202.5529	1217.6781	1250.9617	1264.5857	1271.9179	1309.1325	1325.8157	1350.6043	1369.9649	1430.8349	1465.5898	1485.7239	1488.6631	1530.9961	3017.7507	3046.6485	3057.2523	3067.564	3077.2301	3091.2296	3122.3012	3131.3144	3145.0276	3157.9767
C1CC2(CCC3OC23)O1	C1C[C@@]2(CC[C@@H]3O[C@H]23)O1	
InChI=1S/C7H10O2/c1-2-7(3-4-8-7)6-5(1)9-6/h5-6H,1-4H2	InChI=1S/C7H10O2/c1-2-7(3-4-8-7)6-5(1)9-6/h5-6H,1-4H2/t5-,6-,7+/m0/s1
