19
gdb 287	2.4074554	2.2474349	1.5642953	1.0768	73.75	-0.23168	0.08535	0.31703	907.3731	0.159944	-422.526899	-422.520164	-422.51922	-422.557473	28.446	
C	 2.421901812	 0.6881925889	-2.285334974	-0.41896
C	 1.1230461739	-0.1097760881	-2.1383707477	-0.073756
C	-0.3001594075	 0.2009776724	-2.5283896674	-0.112631
O	-1.0909866177	 0.3395112159	-1.3229876774	-0.291204
C	-0.4576628771	 1.0532523189	-0.2494264769	 0.09284
C	 0.4170769924	 0.1355042104	 0.6698466964	-0.097958
O	 1.7882119793	 0.2666039354	 0.207259184	-0.311816
C	 1.5999635971	 0.8391061837	-1.0624158757	 0.438783
C	 0.6274652305	 1.9776986777	-0.8107249414	-0.303072
H	 3.3247893379	 0.0890989165	-2.2490781564	 0.131936
H	 2.4799595132	 1.5437311826	-2.9520134915	 0.119674
H	 1.3042462614	-1.1510975748	-1.8889316307	 0.103204
H	-0.3761149897	 1.1069848641	-3.1445307202	 0.095472
H	-0.7767535529	-0.611312643	-3.0823204213	 0.111081
H	-1.2651230577	 1.5324942643	 0.3084448091	 0.082347
H	 0.3834574284	 0.450336393	 1.7172767118	 0.106757
H	 0.08327642	-0.9046477993	 0.5876248496	 0.108708
H	 1.0259970331	 2.6638089546	-0.058723159	 0.10833
H	 0.3092683134	 2.5445653467	-1.6850659712	 0.110266
197.0098	272.8983	352.9257	384.6837	414.3562	466.4098	497.3036	566.0239	586.1413	734.7175	787.902	813.3675	838.7541	858.9155	878.8294	896.3607	934.614	947.4511	971.9881	1011.487	1029.19	1052.1202	1080.968	1094.1811	1116.1764	1146.1267	1173.3771	1212.1591	1231.126	1246.6233	1264.5167	1292.7216	1338.9559	1354.0364	1364.8874	1385.2594	1423.22	1478.3534	1484.2652	1503.0009	1524.1718	3009.4856	3039.5904	3071.9813	3087.2028	3092.6508	3099.1034	3126.9716	3140.7077	3154.5086	3217.633
C1C2COC3COC12C3	C1[C@@H]2CO[C@H]3CO[C@@]12C3	
InChI=1S/C7H10O2/c1-5-3-8-6-2-7(1,5)9-4-6/h5-6H,1-4H2	InChI=1S/C7H10O2/c1-5-3-8-6-2-7(1,5)9-4-6/h5-6H,1-4H2/t5-,6-,7-/m1/s1
