19
gdb 189	2.6067327	1.9269864	1.4846378	0.096	73.6	-0.2428	0.08259	0.32538999999999996	944.4913	0.159969	-422.536847	-422.529924	-422.52898	-422.567767	28.27	
C	 1.4613908389	-1.307411867	-2.8428202653	-0.29308
C	 2.3135786984	-0.0263666878	-2.711547186	 0.107397
C	 2.6811034258	 0.4286990685	-1.3040640323	-0.246324
C	 1.5799644308	 0.4133526478	-0.261923127	 0.06061
O	 0.9532224984	-0.8378746928	 0.0564344222	-0.259485
C	 0.1339666862	 0.2100534994	-0.4824470342	 0.060611
C	-0.5757112824	-0.0291878835	-1.8007489627	-0.246324
C	 0.2957641486	-0.3100594445	-3.0192765998	 0.107396
O	 1.2289149049	 0.7775786637	-3.2405843814	-0.301969
H	 1.6784874126	-1.8548553316	-3.7616609471	 0.103531
H	 1.426695623	-1.9835085086	-1.9920361273	 0.132548
H	 3.1975241979	 0.0308043505	-3.35666957	 0.074998
H	 3.516325354	-0.1800880286	-0.9303374468	 0.110119
H	 3.0546573076	 1.458503583	-1.373174162	 0.114055
H	 1.8434099134	 0.9879568601	 0.6296724447	 0.088373
H	-0.5233812026	 0.6551990914	 0.2687223091	 0.088373
H	-1.2871981418	-0.8554288873	-1.6629050305	 0.110119
H	-1.1758560337	 0.8637230634	-2.0183554586	 0.114055
H	-0.34201469	-0.466834316	-3.896471425	 0.074998
168.8086	268.7563	284.1542	357.2548	364.7404	403.1851	413.5839	615.116	714.4566	733.8513	806.4274	820.3892	843.9328	853.8572	903.4012	903.8517	913.8022	991.9461	1012.1454	1022.6557	1069.9629	1075.0133	1104.5351	1140.8077	1143.7107	1171.8084	1225.8803	1247.298	1273.3344	1289.1553	1307.1375	1338.1546	1354.4276	1361.7353	1393.2834	1412.4043	1419.318	1456.9745	1457.1458	1489.2835	1497.2523	3013.6326	3014.013	3039.5027	3042.4975	3055.3514	3056.3447	3068.2478	3081.6589	3090.3314	3172.0774
C1C2CC3OC3CC1O2	C1[C@@H]2C[C@@H]3O[C@@H]3C[C@H]1O2	
InChI=1S/C7H10O2/c1-4-2-6-7(9-6)3-5(1)8-4/h4-7H,1-3H2	InChI=1S/C7H10O2/c1-4-2-6-7(9-6)3-5(1)8-4/h4-7H,1-3H2/t4-,5+,6+,7-
