19
gdb 10	2.4490487	1.3356107	0.9812628	1.5814	77.41	-0.21916	0.02141	0.24057	1245.4641	0.156167	-422.588909	-422.579551	-422.578607	-422.623141	34.282	
C	-1.1551914597	 0.8712479111	-2.0204789112	-0.373592
C	-1.7028283893	 1.2719082465	-0.649826041	 0.024775
O	-2.8099255133	 0.4109851264	-0.3944926746	-0.429
C	-0.6698231935	 1.1733692118	 0.4399351083	 0.125607
C	-0.5054978573	 0.1308874467	 1.2990552198	-0.106255
O	 0.5201533167	 0.3677467343	 2.1585728612	-0.14977
C	 1.0209627337	 1.5899845503	 1.8361686781	-0.091774
C	 0.3414855722	 2.142774406	 0.7963572054	 0.134028
C	 0.5888523633	 3.4777467126	 0.1639068818	-0.50856
H	-0.806562598	-0.1648149644	-1.9926428228	 0.126695
H	-1.9396241113	 0.9594114176	-2.777328589	 0.121935
H	-0.3170933018	 1.513080299	-2.3056397583	 0.117154
H	-2.0472526097	 2.3184293378	-0.7126428635	 0.065473
H	-3.1367004225	 0.6177697434	 0.4876862512	 0.279134
H	-1.0175282108	-0.8090118745	 1.4171487681	 0.14269
H	 1.8491953008	 1.9323739163	 2.4355828186	 0.133429
H	 1.3906730209	 4.0127463504	 0.6802191698	 0.126187
H	 0.878567473	 3.3841377198	-0.8891173425	 0.132061
H	-0.3054941935	 4.1112667389	 0.1934084605	 0.129782
59.9703	135.9181	154.222	172.9751	236.9657	259.9427	285.9638	354.3214	372.3639	450.993	515.7508	612.6227	623.0984	682.8861	734.1589	753.2359	791.832	890.7447	919.4293	1013.0092	1013.2565	1062.7041	1078.0884	1086.3896	1110.7932	1171.8202	1190.7483	1245.3757	1284.8246	1308.5342	1349.7265	1393.3148	1410.6437	1417.0896	1425.8092	1482.2054	1482.9453	1494.3019	1498.8105	1575.9108	1648.057	2946.7133	3026.4091	3045.2613	3074.6004	3109.523	3123.4208	3126.2122	3267.9979	3284.8466	3808.2686
CC(O)C1=COC=C1C	C[C@@H](O)c1cocc1C	
InChI=1S/C7H10O2/c1-5-3-9-4-7(5)6(2)8/h3-4,6,8H,1-2H3	InChI=1S/C7H10O2/c1-5-3-9-4-7(5)6(2)8/h3-4,6,8H,1-2H3/t6-/m1/s1
