19
gdb 44	2.9171269	1.1354233	0.8675029	1.2238	80.6	-0.18587	0.03714	0.22301	1372.8491	0.156014	-422.573283	-422.563759	-422.562815	-422.609437	33.484	
C	 2.7803125024	-0.4219187839	 1.379178747	-0.369259
C	 1.7164347914	 0.6273976366	 1.7476418878	-0.290389
C	 1.8018726842	 1.878142891	 0.9468081576	 0.35346
C	 0.9860774314	 2.4998908715	 0.0585741662	-0.264903
C	 1.643281985	 3.7049176642	-0.3696083676	-0.30988
C	 2.8273211953	 3.7168005378	 0.2964274081	 0.432941
O	 3.8416456939	 4.5878663837	 0.244051199	-0.269217
C	 4.8267519524	 4.4996889823	 1.2706469236	-0.245546
O	 2.9555518499	 2.6310686203	 1.0976903875	-0.229386
H	 2.680920766	-1.3136475449	 2.0058579425	 0.110219
H	 2.6827908254	-0.7243056015	 0.3321398413	 0.12103
H	 3.7874349872	-0.0189150085	 1.5192680448	 0.125381
H	 0.7140358923	 0.2118224955	 1.6003269744	 0.112823
H	 1.8000932373	 0.8626883407	 2.8176610146	 0.109612
H	 0.0154805577	 2.1478060378	-0.2563763095	 0.104083
H	 1.2924132159	 4.4507685746	-1.0624489628	 0.107587
H	 4.3772100867	 4.6167807993	 2.2629176266	 0.129915
H	 5.3574408034	 3.5433503363	 1.2312482826	 0.135111
H	 5.5240330523	 5.3167108071	 1.0822595562	 0.136417
16.7151	67.9797	127.8007	163.0173	181.2395	231.5901	294.224	336.1745	402.5671	514.4558	596.0882	654.1152	673.1577	714.8873	758.5542	785.5256	821.0306	943.932	974.0136	990.1341	1024.1078	1060.823	1080.5945	1093.4896	1177.0921	1201.2902	1222.7307	1229.9057	1293.1159	1305.6928	1359.982	1395.6072	1407.5567	1471.7637	1479.5159	1485.9527	1495.8951	1503.2641	1506.1671	1631.0012	1670.8869	3011.4448	3029.9416	3039.1658	3073.8463	3097.3151	3110.4454	3118.2443	3147.0044	3248.3526	3277.4423
CCC1=CC=C(OC)O1	CCc1ccc(OC)o1	
InChI=1S/C7H10O2/c1-3-6-4-5-7(8-2)9-6/h4-5H,3H2,1-2H3	InChI=1S/C7H10O2/c1-3-6-4-5-7(8-2)9-6/h4-5H,3H2,1-2H3
