19
gdb 119	2.8293649	1.7288552	1.4528856	0.7229	73.92	-0.22854	0.06808	0.29662	966.1609	0.159087	-422.512733	-422.505501	-422.504557	-422.544068	29.166	
C	 0.7968932336	-1.5591662286	 1.4101156334	-0.375972
C	 0.6628002491	-0.8867633728	 0.0558540442	 0.151553
C	 1.980532476	-0.1948175187	-0.2870832405	-0.145369
O	 2.0161361961	 0.4914654689	 0.9976822613	-0.329146
C	 0.7366352892	-0.0675387716	 1.3281428545	 0.435242
C	-0.4028312851	 0.7912642018	 1.8051098573	-0.31918
C	-1.4493073901	 0.862201958	 0.6702423004	-0.073487
O	-1.6993692883	-0.4135328543	 0.0934518786	-0.251098
C	-0.6241976437	-0.8815299137	-0.723958915	-0.176594
H	-0.1071657002	-2.0421530399	 1.7669077495	 0.126794
H	 1.7301152466	-2.0427901367	 1.6842124059	 0.112382
H	 2.8655254089	-0.8225976115	-0.4445327469	 0.105216
H	 1.8894908604	 0.5280189159	-1.1071838128	 0.1048
H	-0.859767845	 0.376842973	 2.7091067506	 0.112254
H	-0.0354562031	 1.7936281467	 2.0450923644	 0.120311
H	-2.4125155633	 1.2159284233	 1.0475302336	 0.110669
H	-1.1070735576	 1.5634036909	-0.1082388008	 0.091807
H	-0.934608231	-1.8732017207	-1.067462381	 0.111168
H	-0.5157402626	-0.2307149402	-1.6086321066	 0.08865
113.7835	224.8747	313.0886	345.4342	371.3102	388.5847	465.1896	499.6216	561.8943	669.4798	745.2407	789.8931	835.7218	860.6566	910.2468	923.9986	958.8794	973.6825	979.0693	999.7634	1041.2871	1050.2464	1083.1388	1099.1346	1154.359	1162.1874	1193.0356	1253.4246	1270.7464	1292.3816	1314.6987	1329.1816	1366.9673	1387.2876	1401.6137	1416.8444	1467.8801	1479.6885	1491.7514	1498.0087	1518.1277	2958.068	2975.1972	3016.2847	3049.8541	3065.9464	3071.5985	3090.8057	3102.3079	3117.5744	3215.5827
C1C23COC12CCOC3	C1[C@]23CO[C@]12CCOC3	
InChI=1S/C7H10O2/c1-2-8-4-6-3-7(1,6)9-5-6/h1-5H2	InChI=1S/C7H10O2/c1-2-8-4-6-3-7(1,6)9-5-6/h1-5H2/t6-,7+/m0/s1
