19
gdb 39	4.020341	0.8518241	0.7756609	1.3125	79.85	-0.21715	0.01762	0.23477	1528.6291	0.15679	-422.586148	-422.576764	-422.575819	-422.621244	33.546	
C	 1.6510948977	-0.9105693464	-0.5540202542	-0.372015
C	 0.8717030331	 0.1867061419	 0.1914168349	-0.290812
C	 1.4676165416	 1.5439841375	 0.040786255	 0.390337
C	 1.034178579	 2.7066889916	-0.5141969499	-0.389924
C	 2.0890173701	 3.6723383522	-0.3455511888	 0.225013
C	 2.0932401461	 5.0970260272	-0.8029001231	-0.172888
O	 1.8351514737	 5.22975359	-2.1974795525	-0.413266
C	 3.0871716029	 3.0066706987	 0.2936483784	-0.123432
O	 2.7293976804	 1.718213066	 0.5424318135	-0.186529
H	 1.1881648053	-1.8891987986	-0.3961199623	 0.113758
H	 1.6737441231	-0.7115576256	-1.6297725185	 0.121213
H	 2.6839417223	-0.959913781	-0.1987160295	 0.131979
H	-0.1593834298	 0.2320546097	-0.1731611128	 0.115461
H	 0.8160035754	-0.0713921917	 1.257119605	 0.117317
H	 0.0808641891	 2.8717706601	-0.9921083397	 0.114466
H	 1.2939969856	 5.6645635214	-0.3129796647	 0.117141
H	 3.0456117383	 5.5729995044	-0.5214016626	 0.089527
H	 2.4495589278	 4.6467127945	-2.6557151932	 0.280404
H	 4.0662096883	 3.2990387481	 0.6379901149	 0.132249
51.6816	68.7411	115.9019	164.0945	207.778	261.5068	312.5158	346.8401	418.8319	457.9319	588.8381	644.6556	707.5086	734.6608	760.2508	787.7026	822.1549	938.3893	972.82	977.0136	992.9812	1053.5936	1069.1749	1088.4165	1160.8261	1171.9158	1198.4145	1232.9009	1284.1031	1308.4473	1353.9768	1356.3762	1404.9277	1419.7284	1425.3658	1475.3825	1496.1284	1505.5115	1506.6817	1587.7093	1655.3413	2982.2624	3023.1908	3041.8326	3058.3689	3080.4239	3112.7843	3122.9374	3255.5232	3268.3095	3809.1001
CCC1=CC(CO)=CO1	CCc1cc(CO)co1	
InChI=1S/C7H10O2/c1-2-7-3-6(4-8)5-9-7/h3,5,8H,2,4H2,1H3	InChI=1S/C7H10O2/c1-2-7-3-6(4-8)5-9-7/h3,5,8H,2,4H2,1H3
