19
gdb 261	3.4207714	1.6589807	1.429379	2.3032	73.69	-0.23423	0.08022	0.31445	954.0746	0.160047	-422.528404	-422.521536	-422.520592	-422.559693	27.81	
C	 0.5055936632	-0.9305324312	 0.1852224585	-0.281351
C	 1.1681537272	-0.0133508508	 1.2220817227	 0.055492
O	 0.0580164996	 0.3888682917	 2.0607163094	-0.289497
C	-0.9987587413	 0.6740405173	 1.0945525962	-0.162721
C	-0.2160453596	 0.4237399906	-0.1822759107	 0.288937
C	-0.4827074235	 0.7973946663	-1.6193267612	-0.382738
C	 0.9739654139	 0.976842157	-2.1531409914	-0.069483
O	 1.871838095	 1.0382633875	-1.0240088807	-0.288803
C	 1.12797341	 1.1232793004	 0.1663187477	 0.120973
H	 1.1836912721	-1.2743257228	-0.5934638624	 0.117767
H	-0.111290332	-1.7466323263	 0.567201409	 0.097757
H	 2.0170058089	-0.273369501	 1.851525653	 0.080868
H	-1.8460168446	-0.0009021301	 1.2615767294	 0.10169
H	-1.3362095661	 1.7106483195	 1.2081435338	 0.103115
H	-1.0317639097	 0.0431676786	-2.1891441721	 0.111888
H	-1.0396615533	 1.738807772	-1.6810788014	 0.11019
H	 1.28297112	 0.1313903147	-2.7774727604	 0.110171
H	 1.0775440657	 1.8913277396	-2.7493591894	 0.106325
H	 1.1117869544	 2.141621127	 0.5753283901	 0.06942
75.7669	252.8037	310.0827	355.2505	407.2411	458.9453	535.1648	657.6143	693.9325	731.2247	824.0812	856.726	874.9856	883.8964	921.4523	930.2609	957.3921	972.3215	987.5292	1009.6415	1033.0691	1077.3024	1103.6453	1132.9388	1159.9971	1183.684	1190.147	1222.8083	1233.7122	1242.5587	1253.2898	1272.5614	1279.7371	1317.263	1351.4513	1374.6504	1397.0687	1480.7795	1492.1924	1526.3703	1530.9211	3022.1348	3024.7341	3028.4493	3045.9701	3063.6849	3065.6111	3082.6607	3100.5822	3143.0511	3164.1348
C1C2OCC11CCOC21	C1[C@@H]2OC[C@@]31CCO[C@H]23	
InChI=1S/C7H10O2/c1-2-8-6-5-3-7(1,6)4-9-5/h5-6H,1-4H2	InChI=1S/C7H10O2/c1-2-8-6-5-3-7(1,6)4-9-5/h5-6H,1-4H2/t5-,6+,7-/m0/s1
