19
gdb 183	3.7160695	1.302738	1.2914527	3.3216	74.14	-0.24114	0.08208	0.32322	1063.3022	0.157834	-422.533447	-422.525837	-422.524893	-422.565812	29.47	
C	-0.1591401368	 1.553442099	 0.0084534082	-0.067843
C	-0.2138686678	 0.015835538	-0.014575224	-0.354055
C	 1.3313224297	 0.0907772221	-0.0330895088	 0.444171
C	 2.1016586119	-0.4812269297	 1.1809949965	-0.29998
C	 3.494552307	-0.7642933194	 0.6609775262	 0.046227
O	 4.0642137629	 0.3319143642	-0.0641829543	-0.249374
C	 3.4758250226	-0.7414813259	-0.8082700735	 0.046228
C	 2.0702440087	-0.4429615898	-1.2835881162	-0.299975
O	 1.2805165428	 1.5440174098	-0.0098805301	-0.308164
H	-0.5785359351	 2.0592412732	-0.8699862979	 0.101029
H	-0.5560194137	 2.0317788893	 0.9123655726	 0.101033
H	-0.6419135376	-0.4541137774	 0.8733104787	 0.107601
H	-0.6646039714	-0.4267172488	-0.9053043708	 0.107598
H	 2.0856576954	 0.2314155826	 2.0100779616	 0.12176
H	 1.6416736526	-1.417257794	 1.5237012294	 0.099783
H	 4.1975369072	-1.3626172158	 1.2355758774	 0.091209
H	 4.1637033506	-1.3214030313	-1.4188895661	 0.091209
H	 2.0334078595	 0.2950693168	-2.0894713319	 0.121759
H	 1.6013081017	-1.3680848331	-1.6433550571	 0.099782
75.1694	101.862	238.3296	316.4555	361.9021	385.4814	428.436	499.3392	680.0282	776.774	781.5412	819.0888	846.2423	861.4089	867.3256	903.316	947.4537	949.2571	982.5688	992.766	1022.7421	1036.3975	1095.7035	1117.7772	1157.4836	1158.6583	1175.7083	1204.1266	1232.0396	1237.4352	1265.2349	1270.8923	1294.8056	1336.2067	1339.4297	1359.7411	1439.7977	1455.631	1467.9038	1488.9041	1533.9265	3014.0201	3028.098	3031.9171	3051.1712	3070.0108	3098.129	3099.0785	3123.9913	3136.6612	3149.3855
C1CC2(CC3OC3C2)O1	C1C[C@]2(C[C@@H]3O[C@@H]3C2)O1	
InChI=1S/C7H10O2/c1-2-8-7(1)3-5-6(4-7)9-5/h5-6H,1-4H2	InChI=1S/C7H10O2/c1-2-8-7(1)3-5-6(4-7)9-5/h5-6H,1-4H2/t5-,6+,7+
