19
gdb 169	3.1361357	1.6394279	1.3525534	1.7006	74.72	-0.23408	0.07925	0.31333	984.7998	0.159308	-422.486114	-422.479247	-422.478303	-422.516958	28.573	
C	 2.2799273784	 0.2635519122	 0.7517384386	-0.279244
C	 1.4260020687	 1.2783815629	-0.0261064208	-0.007349
O	 0.2085182915	 0.6689691379	 0.5982500224	-0.365037
C	 1.0473531591	-0.4630617601	 0.1330057971	 0.444738
C	 0.7196653573	-1.9189012943	 0.07809515	-0.364114
C	 1.7572035353	-2.503086913	-0.92274615	-0.069129
O	 1.8097212347	-1.8134478834	-2.1637124526	-0.249992
C	 2.2572401223	-0.4549861484	-2.0765981995	-0.146608
C	 1.2466509629	 0.273915956	-1.2025039072	 0.003813
H	 3.2824283092	 0.0274047247	 0.3906185617	 0.097086
H	 2.2403374689	 0.3718829209	 1.8360404947	 0.107925
H	 1.472646076	 2.367414198	-0.0338694133	 0.094037
H	 0.7962390648	-2.4320169201	 1.0425749906	 0.106236
H	-0.2934809764	-2.0568148017	-0.3141625403	 0.122608
H	 2.752688714	-2.5054631373	-0.4490863499	 0.093897
H	 1.5017310961	-3.5365782953	-1.1695326661	 0.116089
H	 3.2818845772	-0.4153343163	-1.679757578	 0.094651
H	 2.27865587	-0.086555436	-3.105346912	 0.111434
H	 0.30107132	 0.4254029033	-1.7281152654	 0.08896
169.569	257.6715	341.1613	361.2722	387.962	441.7203	514.2489	564.5801	631.5736	668.0538	711.877	816.7541	850.1229	859.427	906.8717	924.641	938.3758	952.3457	988.5466	1012.8042	1058.1425	1079.4285	1111.5626	1119.3234	1128.6451	1156.8516	1198.4687	1212.6938	1219.879	1238.803	1277.8306	1293.9966	1307.1517	1350.5222	1381.0383	1388.6356	1422.0088	1478.2704	1487.058	1497.2877	1515.6014	2972.4085	3002.1759	3043.5933	3076.3314	3085.6081	3092.888	3098.3802	3101.061	3118.9752	3150.1066
C1C2OC11CCOCC21	C1[C@@H]2O[C@@]31CCOC[C@H]23	
InChI=1S/C7H10O2/c1-2-8-4-5-6-3-7(1,5)9-6/h5-6H,1-4H2	InChI=1S/C7H10O2/c1-2-8-4-5-6-3-7(1,5)9-6/h5-6H,1-4H2/t5-,6+,7-/m1/s1
