19
gdb 91	4.5254448	0.7686797	0.7418755	2.0296	78.12	-0.2503	0.02981	0.28011	1559.7091	0.155821	-422.506971	-422.497722	-422.496778	-422.54246	32.966	
C	-4.7994738172	 1.613891027	-1.7635778143	-0.416183
C	-3.7995483879	 1.5557799972	-1.1015186274	 0.284377
C	-2.6057004713	 1.4839140828	-0.2692623818	-0.218866
O	-1.4512345904	 1.4746562476	-1.088098207	-0.262714
C	-0.2315322009	 1.4800764186	-0.3567340602	 0.117026
C	 0.1797358026	 0.078765326	 0.1447233739	-0.239749
C	 1.0548846664	-0.4222101848	-1.0074645557	-0.074937
O	 1.7846008498	 0.726499614	-1.4144628844	-0.249726
C	 0.8997227376	 1.8371065029	-1.3516915897	-0.094055
H	-5.6799265088	 1.6669592163	-2.3549982181	 0.20181
H	-2.5787807188	 2.3473911449	 0.4176350679	 0.119672
H	-2.655719457	 0.5826184588	 0.3631241127	 0.120223
H	-0.3052524485	 2.2065087538	 0.4643651998	 0.070364
H	 0.7768431474	 0.1667036058	 1.0578108745	 0.108283
H	-0.6812643201	-0.560117631	 0.3543218318	 0.106252
H	 1.773747117	-1.1945208444	-0.7232059126	 0.108669
H	 0.4295151259	-0.8064385627	-1.8290689639	 0.099646
H	 1.4794367939	 2.7119290031	-1.0435865421	 0.106221
H	 0.4390567203	 2.0409499839	-2.3278561136	 0.113687
33.9868	57.9171	119.17	140.7048	235.8492	272.2567	332.2641	359.9622	439.5764	539.9242	610.7073	643.4011	676.65	719.5311	844.4538	881.681	928.8325	948.4834	964.7316	989.7376	1008.109	1033.0851	1080.6129	1102.7373	1121.6781	1149.109	1201.8633	1233.9206	1254.5446	1260.3243	1295.7194	1325.1288	1352.8559	1368.1597	1400.2932	1432.4941	1471.8965	1502.001	1504.044	1518.9606	2248.8228	2956.1212	2981.0374	2981.1622	3003.4999	3016.6587	3059.3793	3085.4982	3099.1007	3116.1575	3506.1044
C#CCOC1CCOC1	C#CCO[C@H]1CCOC1	
InChI=1S/C7H10O2/c1-2-4-9-7-3-5-8-6-7/h1,7H,3-6H2	InChI=1S/C7H10O2/c1-2-4-9-7-3-5-8-6-7/h1,7H,3-6H2/t7-/m0/s1
