19
gdb 257	3.0197774	1.674297	1.2357074	1.8882	74.59	-0.23093	0.07248	0.30341	1022.595	0.159243	-422.516955	-422.509801	-422.508857	-422.54827	28.891	
C	-0.0491552073	-0.3069962949	 0.0496084815	-0.370892
C	 1.4336578828	-0.3469311228	-0.1692781941	 0.047069
O	 1.7424380906	-0.185812124	-1.5566743411	-0.303524
C	 1.1737005126	 1.1566836079	-1.5305392207	 0.056987
C	 2.2670641446	 2.2285291286	-1.6233397773	-0.102204
O	 1.9174063606	 3.3792921879	-0.8723227718	-0.243943
C	 1.8730168512	 3.1047778441	 0.5195480419	-0.072372
C	 0.719955988	 2.1513935337	 0.8687508899	-0.330054
C	 0.7175268549	 0.988675892	-0.0816419159	 0.292004
H	-0.7156906582	-0.6510662958	-0.7374580109	 0.113783
H	-0.3750901094	-0.5323124222	 1.0616056947	 0.112228
H	 2.155786853	-0.856626976	 0.4587723002	 0.102848
H	 0.3990548296	 1.2858884835	-2.2952917149	 0.081816
H	 3.2068525592	 1.7903374995	-1.2526059179	 0.098939
H	 2.4219403664	 2.5606478045	-2.6531421621	 0.109795
H	 2.8334744121	 2.6705200933	 0.8434626864	 0.089511
H	 1.7484085364	 4.0689877109	 1.0198827876	 0.107394
H	 0.8020862086	 1.8204521298	 1.9109397996	 0.099466
H	-0.2290016559	 2.6962410798	 0.7791131451	 0.111152
147.6808	167.3755	313.4095	359.5599	384.5196	437.9124	468.1891	483.0237	592.194	643.93	790.094	793.9771	868.0249	876.8942	925.1709	943.6713	972.2712	988.594	997.2564	1021.9809	1044.8369	1069.0264	1082.963	1111.9168	1128.6784	1132.7352	1185.7208	1241.7258	1244.1335	1286.2792	1295.6853	1319.3785	1347.2221	1366.3086	1377.5362	1411.8292	1417.2743	1475.4269	1484.0578	1490.1805	1501.4032	2969.1995	2988.8007	3018.9616	3040.9334	3062.4426	3089.8892	3097.0025	3105.8141	3174.9457	3197.2278
C1C2OC3COCCC123	C1[C@H]2O[C@@H]3COCC[C@]123	
InChI=1S/C7H10O2/c1-2-8-4-6-7(1)3-5(7)9-6/h5-6H,1-4H2	InChI=1S/C7H10O2/c1-2-8-4-6-7(1)3-5(7)9-6/h5-6H,1-4H2/t5-,6-,7+/m1/s1
