19
gdb 164	3.143543	1.8216495	1.4768884	2.0874	74.15	-0.24275	0.08382	0.32657	936.8554	0.159775	-422.540459	-422.533552	-422.532608	-422.57176	27.952	
C	 1.5555806133	 0.7096815762	 1.1284503513	-0.331408
C	 0.0040980853	 0.6497367434	 1.2752177977	 0.06835
C	-0.4283124073	-0.7105985905	 0.6690920504	-0.259669
C	 0.4985824947	-0.6473933012	-0.5733380571	 0.1417
O	-0.0989499559	-0.5682196307	-1.8522665512	-0.290499
C	 0.495688694	 0.5196317539	-2.5859726206	-0.065303
C	 1.5950673774	 1.1634972272	-1.6921507016	-0.38737
C	 1.0910982406	 0.7550766118	-0.3369399699	 0.422585
O	-0.0885605493	 1.5071895268	 0.1008019697	-0.325283
H	 1.9513216905	 1.6615782523	 1.4835201379	 0.115093
H	 2.1656854792	-0.133147436	 1.4648585598	 0.097529
H	-0.518688178	 1.0351085216	 2.1507285318	 0.081452
H	-0.2334605417	-1.573826104	 1.3104518688	 0.095725
H	-1.4835107954	-0.6929604984	 0.3909821921	 0.123561
H	 1.2604697785	-1.4402565286	-0.5600265082	 0.062995
H	 0.9038779568	 0.1358644792	-3.5276066529	 0.101131
H	-0.2880348363	 1.2486450529	-2.8199387297	 0.116356
H	 2.5765811507	 0.7192915053	-1.8845991734	 0.11332
H	 1.664203553	 2.244412989	-1.827082555	 0.119734
83.9629	188.9675	317.3922	374.8117	407.9055	487.5468	573.4943	643.7437	706.5854	734.9222	816.6341	825.3895	849.5075	870.0076	892.5043	916.739	958.1137	970.5543	977.8054	996.1186	1011.612	1065.3645	1102.4066	1113.1736	1154.0927	1174.6789	1188.7188	1215.7006	1232.7624	1244.6674	1265.5664	1279.9993	1304.1019	1321.7604	1350.3854	1370.5957	1406.8772	1473.1878	1479.3085	1491.7862	1521.1078	2989.896	3031.5592	3059.2519	3063.1366	3072.1988	3072.9509	3121.4673	3124.7877	3132.8396	3143.4879
C1C2CC3OCCC13O2	C1[C@@H]2C[C@H]3OCC[C@]13O2	
InChI=1S/C7H10O2/c1-2-8-6-3-5-4-7(1,6)9-5/h5-6H,1-4H2	InChI=1S/C7H10O2/c1-2-8-6-3-5-4-7(1,6)9-5/h5-6H,1-4H2/t5-,6+,7-/m0/s1
