19
gdb 340	2.888983	1.8144344	1.3254247	2.133	75.01	-0.23683	0.0767	0.31353000000000003	992.632	0.15844	-422.514643	-422.507224	-422.50628	-422.54627	29.47	
C	 3.7135070678	 0.2195591303	 1.1019550472	-0.269155
C	 4.1172700439	-0.9906918257	 0.1766766662	-0.337739
C	 3.1364203064	-0.4028701806	-0.8370321286	 0.412561
O	 3.6485151863	 0.4023630562	-1.9041333547	-0.286819
C	 2.5322832023	-0.4775676373	-2.1561016819	-0.090541
C	 1.2013944034	 0.2688605392	-2.1891970335	-0.281659
C	 1.2828212866	 1.5979074505	-1.3995508024	-0.051702
O	 1.7864592194	 1.5271149339	-0.052051876	-0.285756
C	 2.4010056347	 0.3159713233	 0.2742319901	 0.120027
H	 3.6298565568	 0.0429162283	 2.1753462688	 0.101401
H	 4.3572821999	 1.0806291353	 0.9110256771	 0.127259
H	 5.1548815144	-1.0474640746	-0.152891596	 0.124622
H	 3.8054399344	-1.9559011006	 0.5831105757	 0.113813
H	 2.7189312301	-1.2772976847	-2.8693889112	 0.095135
H	 0.9102748589	 0.5182186976	-3.2161153096	 0.112008
H	 0.4161099737	-0.3829524453	-1.7853910614	 0.113618
H	 1.9176055221	 2.2917406395	-1.9605431232	 0.117535
H	 0.278021384	 2.0308424521	-1.3363257311	 0.099323
H	 1.6689420349	-0.3842406574	 0.7145769646	 0.066069
111.1196	180.8065	263.0549	276.5385	353.615	424.6408	443.8952	577.9661	635.9462	659.5242	699.4013	754.6082	795.6814	859.9936	884.3668	897.5715	946.3137	952.584	985.8356	1045.8092	1047.0087	1076.6472	1102.5137	1114.8464	1141.6415	1180.4426	1206.23	1230.4274	1237.642	1254.6213	1269.7536	1292.4021	1322.1435	1354.7655	1388.0656	1427.1998	1467.8212	1474.7914	1483.5505	1509.7441	1528.1815	2937.3714	3027.0014	3034.6261	3064.9718	3074.6826	3078.3881	3078.8348	3135.2184	3139.3681	3147.2096
C1CC23OC2CCOC13	C1C[C@@]23O[C@@H]2CCO[C@H]13	
InChI=1S/C7H10O2/c1-3-7-5(1)8-4-2-6(7)9-7/h5-6H,1-4H2	InChI=1S/C7H10O2/c1-3-7-5(1)8-4-2-6(7)9-7/h5-6H,1-4H2/t5-,6-,7+/m1/s1
