19
gdb 115	3.4968167	1.1250846	1.0939543	2.0945	75.65	-0.25181	0.0648	0.31660999999999995	1201.635	0.156222	-422.49834	-422.49009	-422.489146	-422.531541	30.891	
C	 1.195489919	 1.6838303361	-0.2564275108	-0.209411
C	-0.2967981293	 1.5181294634	 0.1674622233	-0.315234
C	-0.0759708822	 0.0063018839	 0.1014213851	 0.373094
C	 1.4432806127	 0.1784306817	 0.0698225389	-0.31523
O	-0.7812794936	-0.966087779	 0.8734070723	-0.307113
C	-0.897536026	-1.0143082233	-0.5370550227	 0.237861
C	-2.2045277312	-0.9380915135	-1.3177917714	-0.153988
O	-1.75148524	-2.0034930155	-2.1845776763	-0.275213
C	-0.547858518	-2.2134781014	-1.4107289346	-0.153985
H	 1.3021215401	 1.899961287	-1.3215835305	 0.111334
H	 1.7842732991	 2.4073792305	 0.308865233	 0.108826
H	-0.4793955176	 1.8486279256	 1.1940484515	 0.11936
H	-1.0636032844	 1.9462221559	-0.4832603672	 0.107235
H	 1.8805902436	 0.0316597962	 1.0616233056	 0.11936
H	 2.0047270456	-0.4161055762	-0.6554344967	 0.107235
H	-3.0925373085	-1.2182591453	-0.7367241641	 0.115003
H	-2.4048979953	-0.0106078191	-1.8686605313	 0.107932
H	-0.5524044726	-3.1737808813	-0.8792302594	 0.115003
H	 0.3590279386	-2.1384078157	-2.0237154547	 0.107932
77.4915	120.3213	151.052	178.1995	252.2716	427.8715	432.9642	444.4409	503.0893	582.1472	715.5202	782.4869	822.6526	871.6318	903.9729	920.9171	930.124	933.8771	988.1415	1018.3847	1021.9628	1083.8701	1108.3619	1120.0666	1139.9346	1144.9725	1150.687	1176.9259	1201.149	1236.2129	1243.506	1272.4467	1275.6107	1296.0631	1350.7773	1467.3708	1479.4783	1497.6642	1497.9105	1523.1454	1557.1668	3006.6956	3018.165	3056.402	3058.1056	3058.2976	3060.1731	3077.3266	3105.864	3110.1672	3135.3304
C1CC2(C1)OC21COC1	C1CC2(C1)OC12COC1	
InChI=1S/C7H10O2/c1-2-6(3-1)7(9-6)4-8-5-7/h1-5H2	InChI=1S/C7H10O2/c1-2-6(3-1)7(9-6)4-8-5-7/h1-5H2
