19
gdb 204	2.3614299	2.3096856	1.7994035	1.8485	72.51	-0.22898	0.06643	0.29541	867.4339	0.161195	-422.555346	-422.548944	-422.547999	-422.585798	26.861	
C	 1.4649810539	 0.0918343118	 0.0655673344	-0.271746
C	 1.3363862566	 1.6388827849	 0.0729759549	-0.061588
C	 1.3629758282	 2.2656582449	 1.4773542092	-0.233215
C	-0.0702270161	 2.0113117285	 1.9965283261	 0.041289
C	-0.3077239929	 0.5719233522	 2.4996364862	-0.078748
O	-0.6120234377	-0.3386796154	 1.4481573675	-0.255906
C	-0.0824334723	-0.0303712738	 0.1784505315	 0.085724
C	-0.207493039	 1.4960258724	-0.1624733228	 0.093898
O	-0.8879095927	 2.2188211255	 0.8421658895	-0.245874
H	 1.8289079858	-0.2972504145	-0.8892550492	 0.103175
H	 2.0486402694	-0.3646244787	 0.8698934373	 0.101639
H	 1.9319976303	 2.1907926974	-0.6545662716	 0.069969
H	 2.1319157925	 1.8403987648	 2.1289461074	 0.100285
H	 1.5309603966	 3.3439902129	 1.4084262294	 0.107499
H	-0.3735173106	 2.7279776492	 2.7635991347	 0.0839
H	 0.5642602143	 0.2254120972	 3.0772891417	 0.086862
H	-1.1770873575	 0.5486239687	 3.1641573433	 0.112037
H	-0.5580564667	-0.7315855003	-0.5103805646	 0.083327
H	-0.6283562222	 1.7479249323	-1.136047175	 0.07747
146.526	295.2974	360.2824	407.6028	446.4825	537.5694	587.3323	647.3543	743.6421	808.1106	817.0195	836.2006	851.1239	881.6878	910.5162	943.4569	951.1482	975.2638	1001.0193	1048.4395	1061.3202	1085.0693	1105.2411	1129.9321	1145.8771	1187.2251	1210.4376	1238.8444	1240.1342	1253.7523	1273.887	1295.9309	1302.1376	1332.074	1354.6586	1370.7507	1378.6483	1416.4178	1471.9652	1486.4368	1512.9449	2974.4955	3054.9604	3055.1997	3067.598	3084.792	3087.7932	3097.7961	3104.5437	3109.7428	3118.1178
C1C2CC3COC1C2O3	C1[C@@H]2C[C@@H]3CO[C@H]1[C@H]2O3	
InChI=1S/C7H10O2/c1-4-2-6-7(4)9-5(1)3-8-6/h4-7H,1-3H2	InChI=1S/C7H10O2/c1-4-2-6-7(4)9-5(1)3-8-6/h4-7H,1-3H2/t4-,5+,6+,7-/m0/s1
