19
gdb 306	3.1023504	1.6024846	1.2059213	1.8195	73.76	-0.23709	0.07166	0.30874999999999997	1038.4014	0.159458	-422.519617	-422.512389	-422.511445	-422.551311	28.62	
C	 3.5006346913	 2.2736225948	 1.2648430151	-0.321571
C	 3.3811395001	 1.8252976016	-0.1610220896	 0.107482
O	 3.5248068161	 0.4557243676	-0.3993611046	-0.252944
C	 2.3260881824	-0.1327577163	-0.8969528075	-0.104983
C	 1.2789109865	-0.1585353672	 0.2169467196	 0.108454
O	-0.074395654	-0.1192189324	-0.2869054476	-0.292043
C	-0.234698444	 1.2489447508	 0.1452953209	-0.094728
C	 1.108851183	 1.2218429361	 0.9105840615	-0.064521
C	 2.1452173972	 2.2746599455	 0.5885298003	-0.079774
H	 3.7021750872	 1.4936753172	 1.9916651098	 0.121544
H	 3.9708683898	 3.2278541629	 1.4754367245	 0.112572
H	 3.7782352714	 2.4545595879	-0.9566024171	 0.088216
H	 1.9335870553	 0.4284283107	-1.7569322939	 0.098558
H	 2.5885184257	-1.1387609672	-1.2336412351	 0.111935
H	 1.4349941093	-1.0141652846	 0.8826790501	 0.081031
H	-0.2612908358	 1.9468000272	-0.7032522831	 0.096853
H	-1.1402581796	 1.3852341342	 0.7463671225	 0.105963
H	 0.9546632703	 1.1231140514	 1.9879794223	 0.086679
H	 1.7455716377	 3.2501663299	 0.3253449319	 0.091277
92.0322	185.4291	240.7259	346.8295	374.7603	450.9381	472.3307	486.1088	698.725	726.5092	796.2066	818.5153	829.8069	895.2516	941.55	956.9296	986.0312	1017.5504	1025.8047	1040.0654	1055.9491	1084.82	1091.5753	1118.3931	1132.9917	1162.9703	1171.9582	1179.1521	1230.0984	1248.7868	1269.9339	1282.2416	1328.2319	1343.2668	1367.7944	1384.1718	1391.1865	1409.4276	1479.1835	1500.602	1523.8132	3002.0745	3007.859	3044.2434	3057.0521	3075.3832	3101.4583	3107.0276	3132.3281	3142.8891	3222.0111
C1C2OCC3OCC3C12	C1[C@H]2OC[C@@H]3OC[C@@H]3[C@@H]12	
InChI=1S/C7H10O2/c1-4-5-2-8-7(5)3-9-6(1)4/h4-7H,1-3H2	InChI=1S/C7H10O2/c1-4-5-2-8-7(5)3-9-6(1)4/h4-7H,1-3H2/t4-,5-,6-,7+/m1/s1
