19
gdb 307	2.746336	1.7940203	1.3485286	2.4177	73.61	-0.24915	0.0779	0.32705	988.4051	0.159367	-422.529452	-422.522286	-422.521342	-422.560923	28.602	
C	 2.5955912484	 0.3748830253	-1.4046240603	-0.266025
C	 1.3196883253	 0.7050051808	-2.228151684	-0.239754
C	 0.4450531862	 0.0627873326	-1.1102336091	-0.089949
C	 0.0625070178	-1.3675585075	-1.3954478937	 0.049625
O	-0.5108179346	-2.0972148276	-0.3032906766	-0.256836
C	 0.7893027175	-2.4725487937	-0.7502145214	 0.038558
C	 1.9414486011	-2.1875006535	 0.1876808129	-0.122604
O	 1.9235981295	-0.8888326069	 0.7424395665	-0.256606
C	 1.6794812092	 0.1577310995	-0.1645580919	 0.15528
H	 3.0711051704	-0.5493816699	-1.7414595926	 0.107246
H	 3.3641339802	 1.1457045686	-1.3203809289	 0.103842
H	 1.142608332	 1.7789292609	-2.3186616197	 0.108444
H	 1.2443829775	 0.2589660048	-3.2232107035	 0.100497
H	-0.4443864758	 0.622102836	-0.8065639001	 0.083021
H	-0.4251431246	-1.549549777	-2.3551181777	 0.089891
H	 0.8431619062	-3.4410500901	-1.2509005561	 0.090606
H	 1.9066891645	-2.8744091215	 1.0400552571	 0.121658
H	 2.8822098646	-2.384623053	-0.353244211	 0.094353
H	 1.6383336947	 1.058977012	 0.4516148901	 0.088754
109.3876	198.0954	238.0247	350.1946	382.6121	397.6384	512.9712	580.5928	656.0287	748.334	755.9767	793.9947	839.2297	892.5812	903.3293	935.7942	942.5897	960.2588	991.4369	1038.6346	1057.6136	1082.544	1094.9222	1128.1444	1169.7502	1191.0027	1201.7115	1245.1446	1255.9811	1263.2471	1276.6226	1280.3674	1301.2928	1349.6757	1368.0313	1388.3605	1422.0689	1475.275	1476.7867	1495.72	1498.7496	2969.9397	3059.764	3063.8353	3069.2508	3072.9028	3082.355	3085.8263	3099.1681	3108.5375	3127.981
C1CC2C3OC3COC12	C1C[C@H]2[C@@H]3O[C@@H]3CO[C@@H]12	
InChI=1S/C7H10O2/c1-2-5-4(1)7-6(9-7)3-8-5/h4-7H,1-3H2	InChI=1S/C7H10O2/c1-2-5-4(1)7-6(9-7)3-8-5/h4-7H,1-3H2/t4-,5+,6-,7+/m1/s1
