19
gdb 101	4.6333558	0.9772926	0.9066272	2.0809	75.62	-0.233	0.06984	0.30284	1323.5627	0.155697	-422.4697	-422.461336	-422.460392	-422.503639	31.493	
C	 1.3758019573	-0.3050688545	 0.5783162772	-0.293784
C	 2.0636590324	 0.2895964817	-0.6360804628	-0.280873
C	 0.5739359296	 0.4063175436	-0.4594340145	 0.125411
O	-0.2799880646	-0.3989749069	-1.2337679094	-0.284967
C	-0.691774271	 0.1850861498	-2.4111960864	 0.356442
C	 0.1606374032	 0.3091191313	-3.6574951273	-0.346489
C	-1.1383103183	-0.4539908401	-3.6955300165	 0.008826
O	-2.2437225591	 0.4428323526	-3.8423201281	-0.28464
C	-1.9442185196	 1.0531815882	-2.5564038102	-0.137707
H	 1.2739138623	-1.3839228761	 0.6070253413	 0.128533
H	 1.5079519045	 0.1664826926	 1.5452608852	 0.116869
H	 2.6728509906	 1.1784920507	-0.514321368	 0.1153
H	 2.4184328394	-0.4065136	-1.386690804	 0.12009
H	 0.1595167356	 1.3832735198	-0.216192708	 0.09135
H	 0.2564216753	 1.2478494497	-4.19699352	 0.113872
H	 1.0468464353	-0.317080321	-3.6405698574	 0.118878
H	-1.2613479895	-1.4818873399	-4.0142003721	 0.114855
H	-1.8251264683	 2.1404501379	-2.6274468672	 0.103495
H	-2.7147150753	 0.8010499304	-1.819059812	 0.11454
35.8798	85.8598	138.6816	270.2667	311.4367	370.8362	384.9566	432.984	489.	683.503	740.9268	756.3531	817.5837	822.6677	886.5587	906.4035	928.4069	977.2464	985.4852	994.6361	999.3198	1018.2056	1055.8164	1071.6396	1073.2514	1075.3526	1108.4552	1126.4796	1154.6857	1189.554	1192.249	1221.017	1236.9448	1286.1914	1301.7545	1385.3332	1412.7738	1452.7321	1477.3075	1498.8184	1513.1535	3024.9711	3080.2079	3114.5647	3114.9106	3139.3531	3143.7785	3191.684	3214.8527	3223.5745	3237.1439
C1CC1OC12CC1OC2	C1CC1O[C@@]12C[C@@H]1OC2	
InChI=1S/C7H10O2/c1-2-5(1)9-7-3-6(7)8-4-7/h5-6H,1-4H2	InChI=1S/C7H10O2/c1-2-5(1)9-7-3-6(7)8-4-7/h5-6H,1-4H2/t6-,7+/m0/s1
