19
gdb 66	4.7646105	0.795672	0.7088243	0.9513	80.9	-0.21227	0.02348	0.23575	1627.5603	0.155825	-422.570721	-422.561202	-422.560258	-422.606033	33.271	
C	 1.4172247572	-0.181093225	-0.04880452	-0.218348
O	 0.0168509894	-0.1403083473	 0.0778406144	-0.230993
C	-0.4136856953	 0.8121210868	 1.0342539258	-0.193659
C	-1.8987085039	 0.7485368227	 1.1608419842	 0.27129
C	-2.781580217	 1.768097025	 1.0029773024	-0.124779
O	-4.055226813	 1.3435774268	 1.2225193534	-0.182484
C	-3.9905984124	 0.011047344	 1.521479804	 0.379867
C	-5.2815363522	-0.6752105731	 1.78927916	-0.488506
C	-2.6955522126	-0.400174663	 1.4995584155	-0.373232
H	 1.9084172229	-0.4454112285	 0.9019612955	 0.1009
H	 1.6562501038	-0.9440529319	-0.7936334506	 0.126839
H	 1.8279190803	 0.7845174257	-0.3858635464	 0.101683
H	 0.0672783805	 0.599699702	 2.0058016405	 0.091666
H	-0.100275681	 1.8278460243	 0.7397715644	 0.088559
H	-2.6679974339	 2.8102175701	 0.7518922719	 0.130723
H	-5.8090118225	-0.2237878698	 2.6373305119	 0.136868
H	-5.9515498915	-0.6242334316	 0.9234003193	 0.138317
H	-5.100548859	-1.7273047866	 2.019638907	 0.135634
H	-2.3376769799	-1.4009381607	 1.684590987	 0.109653
50.5449	88.7207	100.1612	131.3648	210.636	230.0878	280.1837	341.1104	371.4836	413.0534	618.9648	638.0189	667.1887	743.7914	780.1313	818.3954	940.1789	976.6354	996.78	1012.652	1029.2329	1065.0139	1144.2448	1161.3235	1178.3792	1183.0794	1220.1037	1232.3348	1262.5393	1301.4685	1409.9992	1413.9993	1419.2851	1473.0892	1479.5806	1484.7774	1490.8003	1502.1983	1521.4876	1597.4442	1663.8592	2939.8104	2964.4624	2975.0399	3005.7152	3030.4276	3080.4075	3113.3735	3130.2824	3257.8065	3271.0567
COCC1=COC(C)=C1	COCc1coc(C)c1	
InChI=1S/C7H10O2/c1-6-3-7(4-8-2)5-9-6/h3,5H,4H2,1-2H3	InChI=1S/C7H10O2/c1-6-3-7(4-8-2)5-9-6/h3,5H,4H2,1-2H3
