19
gdb 193	2.5297165	2.165604	2.065952	1.9282	71.91	-0.24861	0.08176	0.33037	831.9373	0.162517	-422.597967	-422.592119	-422.591175	-422.627713	25.771	
C	 0.8310164011	-0.066305134	 0.8373783795	-0.218433
C	-0.2499252161	 0.4076941961	-0.1579120474	-0.032625
C	 0.617618751	 1.2775902261	-1.0929872774	-0.218433
C	 1.7175412864	 0.26361085	-1.4470890921	 0.064477
O	 1.1728788804	-0.644342648	-2.4117795635	-0.257313
C	 0.448198548	-1.5436973145	-1.5936269808	 0.183296
C	-0.7608855244	-0.8219818825	-0.9575109334	-0.242738
O	 1.374369778	-1.9132515847	-0.5891272906	-0.257313
C	 1.8610142747	-0.6399318351	-0.1492498325	 0.064477
H	 1.2328673517	 0.7785805948	 1.4077615676	 0.09218
H	 0.4992366173	-0.835863122	 1.5382995134	 0.104569
H	-1.0769520748	 0.9479337604	 0.3096219421	 0.06359
H	 0.1085951886	 1.6242415789	-1.9953816777	 0.104569
H	 1.0155394015	 2.1472270604	-0.5581558781	 0.09218
H	 2.6464620773	 0.675510151	-1.8416884255	 0.081272
H	 0.1808337476	-2.4261724458	-2.1784371563	 0.088416
H	-1.4517535396	-0.5111326489	-1.7486386297	 0.103279
H	-1.2916573486	-1.5193602673	-0.300431073	 0.103279
H	 2.8754056996	-0.7662933947	 0.2293086152	 0.081271
310.0676	357.2107	422.851	477.0218	490.7166	573.6484	591.8624	750.8871	805.5962	813.9139	828.0364	851.2957	877.8976	895.0837	903.1519	914.1508	932.9888	990.6869	1009.0888	1009.4669	1017.613	1075.0635	1087.2582	1121.0988	1140.782	1165.3087	1182.7444	1214.7594	1265.8007	1283.9086	1294.7808	1309.2199	1327.3112	1338.0299	1341.2313	1371.3808	1381.8847	1387.9566	1471.5229	1475.4016	1499.9578	3040.1909	3040.9735	3046.1108	3075.8692	3086.3991	3103.7584	3106.0662	3107.6845	3108.4915	3119.3186
C1C2CC3OC(C2)OC13	C1[C@H]2C[C@@H]3O[C@H](C2)O[C@H]13	
InChI=1S/C7H10O2/c1-4-2-6-5(1)8-7(3-4)9-6/h4-7H,1-3H2	InChI=1S/C7H10O2/c1-4-2-6-5(1)8-7(3-4)9-6/h4-7H,1-3H2/t4-,5+,6-,7+
