19
gdb 239	3.0907456	1.8707414	1.5985011	2.0579	73.61	-0.23286	0.08858	0.32144	906.1354	0.16084	-422.545764	-422.539324	-422.53838	-422.576174	27.115	
C	 0.69663634	 1.3276837323	-1.1419808298	-0.259677
C	 0.2171231988	 1.4018590203	 0.3270217253	 0.064623
O	 1.4329901689	 1.5829586422	 1.0589798397	-0.287509
C	 2.2877531643	 0.5543594002	 0.4886900086	 0.118512
C	 2.5920798743	-0.4991970001	 1.5608688539	-0.237018
C	 1.4236125235	-1.490133773	 1.6694201342	-0.069647
O	 0.1615343492	-0.8617481808	 1.4662359736	-0.272598
C	 0.0755195642	-0.1472628723	 0.2645010929	 0.144575
C	 1.3581146794	 0.0231409168	-0.618295384	-0.135687
H	-0.1001382654	 1.1407715894	-1.8644265953	 0.103969
H	 1.3521230403	 2.1328417028	-1.4782463202	 0.107027
H	-0.551119745	 2.0767309942	 0.6990315615	 0.081713
H	 3.2010146146	 1.0254969092	 0.1111369676	 0.074917
H	 3.5122610068	-1.0436300074	 1.3176237044	 0.093368
H	 2.7553671473	 0.0253805737	 2.5067587385	 0.119758
H	 1.5532364548	-2.3019838092	 0.9366178279	 0.089446
H	 1.3737416141	-1.9489263218	 2.6597765737	 0.110755
H	-0.7981365757	-0.4741669486	-0.3081022437	 0.077505
H	 1.7407897457	-0.7584322979	-1.2730599886	 0.075966
204.4553	242.7554	354.1144	383.2331	461.6964	483.153	595.3416	654.717	732.5113	804.4714	824.388	847.5958	859.6119	882.3694	911.6563	922.4829	973.1228	983.725	1007.4318	1031.4032	1057.2843	1064.9588	1088.4747	1101.1461	1116.9593	1158.1864	1198.5526	1223.8194	1239.5194	1243.0238	1274.6935	1283.164	1294.6352	1333.274	1359.0104	1362.6222	1390.8137	1416.9545	1471.8559	1488.2295	1510.3453	2977.5799	3036.3441	3053.8142	3058.935	3076.4725	3088.8935	3101.6438	3128.2237	3140.0698	3147.0158
C1C2OC3CCOC2C13	C1[C@@H]2O[C@H]3CCO[C@@H]2[C@@H]13	
InChI=1S/C7H10O2/c1-2-8-7-4-3-6(7)9-5(1)4/h4-7H,1-3H2	InChI=1S/C7H10O2/c1-2-8-7-4-3-6(7)9-5(1)4/h4-7H,1-3H2/t4-,5-,6-,7+/m0/s1
