19
gdb 246	2.8341837	1.8100986	1.4995006	2.2825	73.18	-0.23949	0.08014	0.31963	944.1279	0.160112	-422.559786	-422.55276	-422.551816	-422.591366	27.923	
C	-0.4040934806	 0.3718867755	-1.3586416899	-0.072116
C	-0.0826382723	-0.1189594266	 0.0588556902	-0.230813
C	 0.8927715755	 0.9584115417	 0.573760927	-0.082122
C	 0.2387454571	 2.1606518781	 1.2312751187	 0.030973
O	-0.7161457952	 2.8242791621	 0.3870539909	-0.254334
C	 0.5944121807	 3.3932858721	 0.5155510519	 0.043175
C	 1.5124606085	 3.0667336489	-0.6423406275	-0.262511
C	 1.5392638523	 1.5157890486	-0.7354647267	 0.10974
O	 0.7873738576	 0.9997035986	-1.8279716016	-0.269552
H	-0.6455299899	-0.4387052351	-2.053133826	 0.097276
H	-1.2347049485	 1.0866754115	-1.3408505961	 0.114355
H	-0.975423908	-0.2176458963	 0.6818864209	 0.106327
H	 0.417452482	-1.0917070148	 0.0232543324	 0.103702
H	 1.6416070307	 0.5412983301	 1.2537252275	 0.076242
H	-0.017555972	 2.140234948	 2.2883248941	 0.092415
H	 0.6260359017	 4.367298104	 0.9983907314	 0.094132
H	 1.1696105672	 3.4970359512	-1.5873980602	 0.125781
H	 2.5144107857	 3.4615108482	-0.4376289866	 0.098859
H	 2.5686643275	 1.165737614	-0.8695608804	 0.078472
72.9054	205.6179	235.8346	347.5125	385.0599	482.1644	581.3766	655.951	678.5304	771.8286	806.676	835.0013	860.5663	877.356	906.502	918.6504	947.3843	976.4061	1015.0833	1035.2282	1036.1863	1054.6541	1103.5917	1118.7699	1130.0118	1190.5	1221.1168	1227.547	1243.3527	1262.2445	1286.3248	1320.8948	1321.528	1340.387	1368.5826	1376.9761	1404.838	1436.3099	1469.066	1488.3598	1519.1106	3030.2573	3036.013	3048.0429	3051.3994	3069.0901	3082.8911	3101.4992	3107.8463	3133.0295	3146.3832
C1CC2C3OC3CC2O1	C1C[C@@H]2[C@@H]3O[C@@H]3C[C@@H]2O1	
InChI=1S/C7H10O2/c1-2-8-5-3-6-7(9-6)4(1)5/h4-7H,1-3H2	InChI=1S/C7H10O2/c1-2-8-5-3-6-7(9-6)4(1)5/h4-7H,1-3H2/t4-,5-,6+,7-/m0/s1
