19
gdb 43	3.1125375	1.0033431	0.8309572	1.9054	80.25	-0.21341	0.01265	0.22605999999999998	1434.7613	0.156645	-422.588389	-422.578974	-422.57803	-422.623721	33.552	
C	 1.624011092	-0.6773716512	-0.3051451388	-0.371259
C	 0.7968270234	 0.491781148	 0.2574628467	-0.295093
C	 1.4224660406	 1.8250683183	 0.0332201815	 0.358862
C	 1.0547067689	 2.9313919947	-0.6683932423	-0.266462
C	 2.0981893957	 3.8981181459	-0.4904685617	-0.262238
C	 3.0358359362	 3.3144859345	 0.3005802491	 0.328328
C	 4.3334302769	 3.7534140171	 0.882387647	-0.176564
O	 4.2960746524	 3.9073332976	 2.2984191745	-0.412944
O	 2.6350427177	 2.044734898	 0.6264843665	-0.228316
H	 2.6189743631	-0.7007655382	 0.1477210338	 0.12969
H	 1.1327443318	-1.6331314576	-0.0998298874	 0.113946
H	 1.7494644703	-0.5813124307	-1.3878344954	 0.122639
H	-0.196035463	 0.5073588379	-0.2031557062	 0.115149
H	 0.6392625824	 0.3369822862	 1.333168656	 0.115371
H	 0.1472285821	 3.0458023968	-1.2409132475	 0.106949
H	 2.1427402387	 4.8973343209	-0.8953088795	 0.111134
H	 5.1309487366	 3.0513579009	 0.5909727382	 0.100154
H	 4.5899632622	 4.733484443	 0.4717397735	 0.123507
H	 3.9897090521	 3.0707726379	 2.6639752619	 0.287145
40.259	70.315	121.0826	145.1974	211.8752	266.9923	309.9167	352.8393	419.0288	429.7026	605.2877	658.2717	684.9675	761.0646	784.9863	804.6516	837.2435	939.328	953.2753	986.3764	1009.9299	1034.3403	1040.4877	1077.6931	1090.3038	1185.2671	1222.9024	1234.5774	1255.5102	1293.2806	1354.9403	1367.1329	1397.7087	1409.7868	1419.1709	1474.2669	1490.3038	1496.9737	1507.0482	1596.3389	1656.3657	2976.6114	3020.4478	3041.864	3079.1551	3099.6792	3113.6277	3122.1918	3248.6376	3262.1507	3816.5119
CCC1=CC=C(CO)O1	CCc1ccc(CO)o1	
InChI=1S/C7H10O2/c1-2-6-3-4-7(5-8)9-6/h3-4,8H,2,5H2,1H3	InChI=1S/C7H10O2/c1-2-6-3-4-7(5-8)9-6/h3-4,8H,2,5H2,1H3
