19
gdb 393	2.6390377	1.5030897	1.2317657	2.5521	74.78	-0.24804	0.0617	0.30974	1083.6504	0.156515	-422.493131	-422.484926	-422.483981	-422.526348	30.798	
C	-1.6996606579	 1.3301524426	-2.389396033	-0.325917
C	-0.8332521	 2.5696220175	-2.4160753393	-0.325917
C	-1.2125485201	 1.9399895935	-1.1118930336	 0.221416
C	-2.0269770589	 2.5338495873	 0.0300433325	-0.145524
O	-1.131809271	 1.9288652454	 0.9934283868	-0.318997
C	-0.3185682541	 1.3383860998	-0.0300643768	 0.312542
C	 1.2068184041	 1.5373181041	 0.0461388502	-0.132141
O	 1.4326063594	 0.1143634676	-0.0281316573	-0.275448
C	 0.0205633161	-0.1597677183	 0.0826628156	-0.13214
H	-2.753304893	 1.4312040075	-2.6297271129	 0.118663
H	-1.2560024716	 0.3946227201	-2.7148830211	 0.124006
H	 0.1909979283	 2.4646256059	-2.7594121154	 0.124006
H	-1.2951101999	 3.5172268695	-2.6746601566	 0.118664
H	-2.0278579013	 3.6283264705	 0.1062581222	 0.105849
H	-3.0532814948	 2.1613313501	 0.1378306854	 0.105849
H	 1.6858057948	 2.0787676036	-0.778379576	 0.102106
H	 1.5273580267	 1.9662526174	 1.0044852932	 0.110439
H	-0.3397820323	-0.8190838925	-0.716012171	 0.102106
H	-0.2525905746	-0.5801823216	 1.0592888372	 0.110439
75.8852	76.1475	193.0045	238.8908	268.3485	341.7468	401.165	493.7939	504.7224	563.006	775.635	820.8289	869.5655	892.0061	894.9351	907.3788	938.5696	975.008	996.9426	1022.1742	1028.0811	1056.8566	1068.8283	1081.3367	1131.8542	1145.0027	1145.4565	1152.515	1182.5899	1188.6775	1188.8129	1289.2749	1291.6107	1326.9951	1373.7015	1417.0464	1462.9759	1493.0553	1508.3184	1521.8094	1526.0529	3006.8223	3010.752	3019.3143	3054.7036	3063.7074	3063.8439	3124.2537	3127.3479	3202.1625	3216.6973
C1CC11COC11COC1	C1CC21COC12COC1	
InChI=1S/C7H10O2/c1-2-6(1)3-9-7(6)4-8-5-7/h1-5H2	InChI=1S/C7H10O2/c1-2-6(1)3-9-7(6)4-8-5-7/h1-5H2
