19
gdb 64	4.8614347	0.7441687	0.6788669	1.5818	79.59	-0.20996	0.02439	0.23435	1661.9657	0.156243	-422.587934	-422.578352	-422.577408	-422.623269	33.832	
C	-5.3323443614	-1.1306379766	-0.7480817881	-0.488318
C	-4.157393219	-0.2408530618	-0.5542030828	 0.380255
C	-2.8725367075	-0.2729248684	-0.9988411812	-0.382665
C	-2.2095761689	 0.8903452204	-0.4664131279	 0.254603
C	-0.7791947099	 1.2937886365	-0.6562331328	-0.306617
C	 0.1961077824	 0.3796022521	 0.0882476859	-0.060311
O	 1.5105713842	 0.8364953697	-0.1885897539	-0.418388
C	-3.1582948983	 1.5330458818	 0.2643143413	-0.123953
O	-4.3448650973	 0.8643455054	 0.2232120662	-0.180923
H	-5.6992300591	-1.5269535554	 0.2056813598	 0.137117
H	-6.165511617	-0.5996083473	-1.2225375482	 0.137901
H	-5.057576646	-1.9740039221	-1.3853764657	 0.134164
H	-2.4417896404	-1.0285077691	-1.6387524927	 0.102309
H	-0.5115060714	 1.2794086239	-1.7195577275	 0.114259
H	-0.6242277975	 2.3201319172	-0.3072027226	 0.109532
H	-0.0258037594	 0.4114538594	 1.1664449603	 0.089286
H	 0.0544417914	-0.6615702189	-0.2427682794	 0.087288
H	 2.1305321774	 0.2761951251	 0.2868779048	 0.285772
H	-3.1515926024	 2.4429625782	 0.8422767647	 0.12869
54.4045	88.6102	95.2315	126.1758	219.7555	255.3682	266.7157	342.3003	375.4466	396.8466	619.2269	638.2379	671.5527	739.4153	770.1355	799.7489	816.1235	942.6775	992.5348	1008.5357	1020.2924	1058.3358	1064.6671	1078.8073	1162.5523	1171.3941	1211.3951	1237.6874	1249.5412	1292.4267	1309.8348	1344.5729	1406.3723	1415.5869	1455.2098	1472.6612	1488.5019	1491.0005	1526.1079	1589.7546	1660.3994	2969.8115	2998.6329	3030.0042	3036.0433	3079.8468	3082.7998	3129.1162	3244.2282	3270.2992	3832.098
CC1=CC(CCO)=CO1	Cc1cc(CCO)co1	
InChI=1S/C7H10O2/c1-6-4-7(2-3-8)5-9-6/h4-5,8H,2-3H2,1H3	InChI=1S/C7H10O2/c1-6-4-7(2-3-8)5-9-6/h4-5,8H,2-3H2,1H3
