19
gdb 243	3.3913023	1.6151317	1.3310009	0.4524	73.63	-0.2311	0.08774	0.31884	994.0212	0.159757	-422.552627	-422.545565	-422.544621	-422.58413	28.212	
C	-0.0793649457	-0.6614670812	 0.3849783825	-0.334866
C	 1.3586941036	-0.3339953754	 0.0860183782	 0.117704
O	 1.6568618584	 0.2750203674	-1.1441940642	-0.279593
C	 0.907696585	 1.4906914482	-1.2742464382	 0.067487
C	 1.8484851666	 2.6455619042	-1.6182322549	-0.238093
C	 2.3375859865	 3.0658573552	-0.2291843312	-0.080852
O	 1.1983715277	 2.9306563461	 0.6186909143	-0.274663
C	 0.3810436677	 1.862336845	 0.1428314571	 0.097601
C	 0.5646008213	 0.5931552524	 0.9536255069	-0.100082
H	-0.8115275979	-0.5618783364	-0.4104371071	 0.115557
H	-0.2787835339	-1.4706855557	 1.0791586424	 0.11539
H	 2.1666557251	-0.9642931208	 0.4380687899	 0.101807
H	 0.1073169034	 1.350373185	-2.0079646077	 0.078034
H	 2.6471122649	 2.3264853285	-2.2907159468	 0.11614
H	 1.2872494274	 3.4588273607	-2.0897623382	 0.104944
H	 3.1569778798	 2.4131981207	 0.1062195624	 0.101042
H	 2.6753582126	 4.1039547155	-0.1708388306	 0.107747
H	-0.6548454413	 2.2186391539	 0.1369599519	 0.08411
H	 0.7179016389	 0.6948915968	 2.0206210234	 0.100586
94.0339	175.466	241.4666	337.1396	409.5561	442.3007	592.7157	645.0298	703.777	788.9768	806.7855	843.3719	850.5772	867.0741	901.6507	921.4072	947.9802	972.4131	1010.1775	1013.0272	1044.3507	1060.8034	1075.1604	1101.1808	1107.5416	1127.181	1160.3516	1192.1434	1209.7003	1233.422	1284.9241	1295.6174	1315.6035	1331.2477	1349.7585	1360.3036	1394.8428	1397.7754	1469.6878	1479.3582	1520.32	2998.143	3039.9548	3050.5514	3062.7268	3092.5243	3125.0657	3126.9439	3182.5823	3193.6226	3215.7162
C1C2OC3CCOC3C12	C1[C@H]2O[C@@H]3CCO[C@@H]3[C@@H]12	
InChI=1S/C7H10O2/c1-2-8-7-4-3-6(4)9-5(1)7/h4-7H,1-3H2	InChI=1S/C7H10O2/c1-2-8-7-4-3-6(4)9-5(1)7/h4-7H,1-3H2/t4-,5+,6+,7+/m0/s1
