19
gdb 251	2.9938327	1.7336606	1.2747816	1.7099	75.17	-0.25054	0.09494	0.34548	1007.101	0.15944	-422.525934	-422.518809	-422.517865	-422.557232	28.685	
C	-0.237214243	-1.0929549448	-1.2181652726	-0.354653
C	 0.8720945528	-0.472413407	-0.406882157	-0.095492
C	 2.0125659391	-0.0374407056	-1.3373335463	-0.251404
C	 1.0139407548	 0.882836551	-2.0953760141	 0.056705
O	 1.3253301913	 2.2455501851	-1.8363307976	-0.253727
C	 0.1691346007	 3.0344339808	-1.7023620798	 0.013884
O	-0.6127631173	 2.6728579031	-0.5960706493	-0.229334
C	-1.1799253532	 1.374827078	-0.768642455	-0.212627
C	-0.1205403871	 0.3986483667	-1.1802597421	 0.342606
H	-0.0156392528	-1.646451714	-2.1291435388	 0.106155
H	-1.0610309028	-1.5054367647	-0.6421011886	 0.114229
H	 0.9496015825	-0.6306762903	 0.6621224901	 0.090328
H	 2.7733717942	 0.5737765785	-0.8504480774	 0.123211
H	 2.4930030569	-0.8320179464	-1.9166254127	 0.09565
H	 0.8863468205	 0.7254464693	-3.1772084922	 0.060789
H	 0.5076998769	 4.05828885	-1.5330265082	 0.117703
H	-0.4384136455	 2.9824972396	-2.6268298251	 0.071347
H	-1.6493438619	 1.1026299925	 0.1816464526	 0.112635
H	-1.9713228062	 1.423446428	-1.5374790858	 0.091995
147.1935	162.8762	302.2229	367.5277	391.0533	425.3454	470.0489	485.5683	612.6071	681.2658	777.9016	818.1325	870.0981	901.8139	925.2097	953.7207	962.654	998.9217	1016.309	1025.2677	1041.4974	1061.7526	1090.5488	1094.4663	1133.1938	1178.2631	1205.3293	1235.0601	1249.9702	1264.0457	1284.2189	1311.6528	1324.374	1352.7258	1372.926	1422.5828	1442.6176	1471.8342	1489.5411	1502.3527	1508.2009	2914.4689	2949.9596	2982.6098	3054.6408	3078.2873	3096.0395	3114.9207	3132.1176	3178.8399	3188.4481
C1C2CC3OCOCC123	C1[C@H]2C[C@@H]3OCOC[C@]123	
InChI=1S/C7H10O2/c1-5-2-7(5)3-8-4-9-6(1)7/h5-6H,1-4H2	InChI=1S/C7H10O2/c1-5-2-7(5)3-8-4-9-6(1)7/h5-6H,1-4H2/t5-,6+,7-/m1/s1
