19
gdb 404	3.3904663	1.4447957	1.2246935	2.3783	74.5	-0.25044	0.0838	0.33424	1058.9592	0.157961	-422.525883	-422.518332	-422.517388	-422.557707	30.074	
C	 0.7133977113	 1.3363128498	-0.0870244817	-0.326944
C	 1.5717164069	 0.0835033895	-0.0841577406	-0.327004
C	 0.0678168995	-0.001513009	 0.0499059103	 0.44163
C	-0.5760384815	-0.4336275849	 1.3551725673	-0.296098
C	-1.0164750086	-1.8883191631	 1.2926559989	 0.036416
O	-2.2534793702	-2.1391920816	 0.6118444368	-0.246901
C	-1.0476384935	-2.5798773771	-0.0052162669	 0.045463
C	-0.6170984354	-1.8331302607	-1.2486519247	-0.127289
O	-0.6444861533	-0.4266515604	-1.0831989271	-0.282633
H	 0.7376436845	 1.9863804391	 0.7812047528	 0.11234
H	 0.5796593581	 1.8448629905	-1.0347005376	 0.126434
H	 2.0037463916	-0.2177749038	-1.0319874573	 0.118629
H	 2.1906819724	-0.1215065688	 0.7829684174	 0.110371
H	 0.1253623885	-0.2925159037	 2.1835889189	 0.100591
H	-1.457597503	 0.1843993261	 1.5635864805	 0.123693
H	-0.8900600313	-2.4775473962	 2.2003681125	 0.092337
H	-0.9143743964	-3.6621852147	-0.0463280559	 0.089093
H	 0.3932086223	-2.1770887945	-1.5265947782	 0.091004
H	-1.293120272	-2.0542471064	-2.0809307052	 0.118869
93.7916	191.8401	279.6087	297.9443	339.4577	390.7511	421.0491	514.871	552.3965	682.9751	767.4511	770.9717	812.7272	819.231	866.2792	915.6664	929.5996	941.1568	983.3873	992.75	1033.8689	1046.2702	1049.7597	1079.4687	1087.4229	1135.3162	1161.9565	1188.0175	1218.1732	1275.9913	1282.5931	1298.9046	1311.9455	1373.8121	1380.4327	1405.7112	1451.6392	1468.0343	1476.5273	1482.4055	1498.7562	2973.0139	3035.5335	3077.0007	3082.56	3097.0649	3115.4515	3130.4286	3136.6417	3215.2428	3230.3825
C1CC11CC2OC2CO1	C1CC21C[C@H]1O[C@H]1CO2	
InChI=1S/C7H10O2/c1-2-7(1)3-5-6(9-5)4-8-7/h5-6H,1-4H2	InChI=1S/C7H10O2/c1-2-7(1)3-5-6(9-5)4-8-7/h5-6H,1-4H2/t5-,6+/m1/s1
