19
gdb 266	3.5793573	1.2596754	1.1247816	1.8058	74.81	-0.23192	0.06716	0.29908	1140.0801	0.157117	-422.486872	-422.478773	-422.477829	-422.520382	30.065	
C	 3.5866764353	-0.7302919562	 0.8854617295	-0.33522
C	 3.1867266823	 0.3253524978	 1.902538243	-0.193046
C	 2.7282632843	-0.3698633693	 3.1787181638	-0.086927
O	 1.8035392724	-1.2173997714	 2.4377025211	-0.333282
C	 2.144159921	-0.5354180471	 1.2227394073	 0.469858
C	 1.0369684868	-0.2706188321	 0.2568582697	 0.036841
C	 0.0249282831	 0.8534041287	 0.5829103889	-0.291403
C	 0.5321551288	 1.4883793457	-0.7261046959	-0.059089
O	 1.51090092	 0.438603571	-0.9105015093	-0.292359
H	 3.8824003464	-0.3282010497	-0.0772551019	 0.135601
H	 4.0942686349	-1.6386557282	 1.1999988849	 0.109987
H	 3.4248413647	 1.3745491458	 1.7922322678	 0.101643
H	 3.4695958405	-0.956247223	 3.7346969332	 0.105448
H	 2.1791286699	 0.2810851151	 3.8681902561	 0.107428
H	 0.5658157418	-1.2268214577	-0.0150082653	 0.085971
H	-1.0244729178	 0.5586437873	 0.598205841	 0.114461
H	 0.2603430105	 1.4123735598	 1.4894894315	 0.113538
H	-0.1938609728	 1.5101647317	-1.5478814191	 0.104685
H	 1.0041077777	 2.4740918416	-0.6438184763	 0.105865
52.6893	85.3347	146.5063	187.402	301.4525	373.4836	441.4125	510.9837	617.719	752.7324	778.4389	825.6897	853.7789	872.6284	930.6314	950.9488	959.4215	978.2088	993.0032	997.7588	1018.4379	1035.5433	1064.8491	1071.8211	1105.1305	1131.7166	1152.1819	1167.1098	1177.5006	1215.6466	1253.8961	1266.7046	1278.6268	1325.0165	1356.3804	1373.4229	1418.9587	1484.9849	1488.8112	1517.6038	1530.7157	2993.9312	3021.1409	3022.6466	3062.1707	3071.2241	3087.6146	3114.7505	3144.7763	3202.718	3221.8802
C1C2COC12C1CCO1	C1[C@@H]2CO[C@]12[C@H]1CCO1	
InChI=1S/C7H10O2/c1-2-8-6(1)7-3-5(7)4-9-7/h5-6H,1-4H2	InChI=1S/C7H10O2/c1-2-8-6(1)7-3-5(7)4-9-7/h5-6H,1-4H2/t5-,6-,7-/m1/s1
