19
gdb 303	2.6052162	2.0451045	1.7858261	1.1811	72.15	-0.23407	0.0792	0.31327	874.2882	0.161324	-422.556295	-422.549883	-422.548939	-422.586771	26.819	
C	-0.977739112	-0.8491270084	 0.9733073443	-0.104403
O	-1.2252672546	 0.1737119621	 1.9459336166	-0.277306
C	-0.3897194543	 1.3018015468	 1.6692206431	 0.071391
C	 1.0133008745	 1.1289445497	 2.2728943064	-0.204148
C	 1.8124413632	 0.0599850031	 1.4829725944	-0.231391
C	 1.3449212977	 0.1109924369	 0.0272165682	 0.08227
O	 1.1095738695	 1.5142242365	-0.3109025758	-0.303307
C	-0.258031436	 1.3321888669	 0.1179576814	 0.080742
C	-0.18321954	-0.1805572818	-0.1369559468	-0.064339
H	-0.4490580282	-1.696222308	 1.4323019634	 0.097873
H	-1.9445796956	-1.2178980284	 0.6108432908	 0.104395
H	-0.8979130028	 2.1736228431	 2.0886615263	 0.079621
H	 1.5349297544	 2.087618104	 2.2030581578	 0.112254
H	 0.9277777886	 0.8706932074	 3.3314649371	 0.102399
H	 2.8852492208	 0.2686726105	 1.5385313007	 0.104758
H	 1.6634911927	-0.9453748746	 1.8930517555	 0.106082
H	 2.0296523247	-0.366440149	-0.6780259723	 0.076772
H	-0.9604965182	 1.9868695353	-0.4006422982	 0.081178
H	-0.4382698246	-0.506707002	-1.144807413	 0.085158
150.6795	282.677	364.4651	382.2117	447.5534	523.6842	628.192	676.901	726.2483	772.3874	788.2124	846.6182	862.3263	897.8794	929.9787	940.5823	978.1369	991.8403	1018.172	1034.9676	1049.552	1072.4006	1096.9589	1108.7813	1140.705	1175.0628	1217.2577	1237.3	1250.2329	1282.7317	1296.609	1315.0075	1327.5586	1333.4834	1354.3081	1367.1041	1381.3137	1396.4829	1469.0259	1491.7578	1528.1322	3004.7243	3042.3287	3047.1271	3059.8031	3076.1667	3080.3194	3084.848	3099.8273	3110.7035	3120.9372
C1OC2CCC3OC2C13	C1O[C@H]2CC[C@@H]3O[C@H]2[C@H]13	
InChI=1S/C7H10O2/c1-2-6-7-4(3-8-6)5(1)9-7/h4-7H,1-3H2	InChI=1S/C7H10O2/c1-2-6-7-4(3-8-6)5(1)9-7/h4-7H,1-3H2/t4-,5+,6+,7+/m1/s1
