19
gdb 29	2.4079701	1.3397091	0.8749593	1.5069	82.01	-0.18416	0.02774	0.21189999999999998	1345.8874	0.154971	-422.575811	-422.56587	-422.564926	-422.611208	34.655	
C	 1.4197135489	-0.5886991627	 0.0914548124	-0.244885
O	 0.7238813098	 0.6377854717	-0.0026140664	-0.268698
C	-0.0091623006	 0.9962404395	 1.0855892146	 0.256747
C	-0.7370773005	 2.1477245081	 1.1544301493	 0.228902
C	-0.9577403802	 3.2619891528	 0.2012388315	-0.500477
O	-1.3529309288	 2.2038384798	 2.3805684676	-0.214812
C	-1.0120312414	 1.0895196108	 3.0797441925	 0.37332
C	-1.5781128955	 0.9524164534	 4.44736747	-0.490753
C	-0.1845999309	 0.3058973632	 2.3334875257	-0.422866
H	 0.7338087334	-1.433977621	 0.2385108042	 0.119113
H	 1.948205367	-0.7190666039	-0.8547675369	 0.131445
H	 2.1501905192	-0.5787819127	 0.911745887	 0.119123
H	-0.6147917894	 4.2227811435	 0.6043312783	 0.129563
H	-0.4001246296	 3.0588346313	-0.7159969237	 0.143209
H	-2.0168195859	 3.3762700424	-0.0604961661	 0.129569
H	-1.2316370439	 0.0213005376	 4.9014290841	 0.131502
H	-1.2738216518	 1.7828223746	 5.095197322	 0.136194
H	-2.6741789993	 0.9378116403	 4.4309024456	 0.136189
H	 0.2408731996	-0.6369862586	 2.6362504182	 0.107617
48.5858	109.9961	122.0089	167.5145	185.8895	198.6636	240.4746	243.093	354.1855	363.8771	530.9844	578.8548	629.719	630.8726	677.542	773.0852	798.7732	943.373	1015.6608	1031.733	1058.7045	1066.9557	1073.7417	1162.4857	1179.3665	1182.4774	1221.6484	1254.4903	1320.9854	1405.1179	1415.0551	1436.656	1471.4818	1475.5374	1487.0249	1487.6819	1494.2428	1497.9613	1508.4527	1611.4261	1695.9962	2996.6855	3018.9326	3026.726	3052.2575	3063.5773	3075.1591	3126.9299	3127.6237	3128.6079	3263.1804
COC1=C(C)OC(C)=C1	COc1c(C)oc(C)c1	
InChI=1S/C7H10O2/c1-5-4-7(8-3)6(2)9-5/h4H,1-3H3	InChI=1S/C7H10O2/c1-5-4-7(8-3)6(2)9-5/h4H,1-3H3
