19
gdb 312	2.8340827	1.7916133	1.3242337	1.7629	73.93	-0.24137	0.08032	0.32169000000000003	987.9554	0.159592	-422.547513	-422.54019	-422.539246	-422.579331	28.558	
C	 1.6557072009	 1.0290232709	-2.2426863167	-0.37757
C	 1.1240694915	 0.2389135448	-1.0669888757	-0.102451
C	 2.0681735524	-0.6992430883	-0.3389594372	-0.100563
O	 3.2428820906	 0.0631887108	-0.0410827011	-0.274408
C	 2.9222712171	 1.444512416	-0.0294744517	 0.043964
C	 2.4308075087	 2.0384078133	 1.3038732742	-0.102036
O	 1.5764740458	 3.1178344954	 0.9394085944	-0.265533
C	 0.9438817253	 2.835924521	-0.3169428626	-0.16682
C	 1.6714706683	 1.6332788414	-0.8742918071	 0.310207
H	 2.6066934884	 0.7383908532	-2.6813210634	 0.122072
H	 0.9247716011	 1.396731874	-2.9558432846	 0.11667
H	 0.0582793984	 0.0472814666	-1.0093982421	 0.093673
H	 1.5911807451	-1.0677251763	 0.5819274639	 0.098219
H	 2.389062145	-1.5686027657	-0.9238872935	 0.109709
H	 3.8047525506	 1.9795140345	-0.3972454365	 0.088228
H	 1.892024136	 1.2665568227	 1.877132845	 0.090922
H	 3.2284430519	 2.4431229946	 1.9319168623	 0.110027
H	-0.1290013997	 2.6452609118	-0.1713063464	 0.097673
H	 1.0466401226	 3.7254301292	-0.9507961611	 0.108016
93.1342	170.9339	201.8517	303.5045	364.4648	401.6959	518.3938	568.2352	669.106	717.561	780.0288	830.8415	867.3332	906.3403	923.9929	949.0775	957.9224	998.2413	1051.8432	1065.113	1072.4125	1081.0544	1089.4539	1109.9031	1122.7908	1135.1236	1202.8181	1219.4321	1231.7544	1256.0527	1288.2756	1303.8596	1329.8941	1362.1896	1374.1874	1405.1746	1422.9274	1489.3095	1511.3835	1521.2007	1527.6699	2973.8798	2988.6863	2997.0678	3038.7482	3049.4349	3056.8432	3095.8933	3115.8768	3173.8732	3204.0658
C1C2COC3COCC123	C1[C@H]2CO[C@@H]3COC[C@]123	
InChI=1S/C7H10O2/c1-5-2-9-6-3-8-4-7(1,5)6/h5-6H,1-4H2	InChI=1S/C7H10O2/c1-5-2-9-6-3-8-4-7(1,5)6/h5-6H,1-4H2/t5-,6+,7+/m0/s1
