19
gdb 278	2.4975039	2.0296059	1.5244118	2.3762	73.79	-0.24205	0.07172	0.31377	931.4707	0.159437	-422.517361	-422.510382	-422.509437	-422.54835	28.521	
C	-2.4219354039	-1.6376604941	-0.7422831651	-0.226435
C	-1.2379916221	-2.4924637351	-0.2201130826	 0.129348
C	-0.3445894084	-1.2229531836	-0.3372594228	-0.268365
C	-1.6497292095	-0.3692012375	-0.2851877835	-0.057349
C	-1.9828105714	 0.060815984	 1.1371760882	 0.040605
O	-3.0944782275	-0.5573657813	 1.8095584442	-0.248691
C	-1.7799223603	-0.8216279913	 2.2940366368	 0.046771
C	-1.2149537353	-2.2311368012	 2.2243689437	-0.117039
O	-1.4797449145	-3.0087188354	 1.0807986697	-0.266201
H	-2.5039084991	-1.6806081233	-1.8316738115	 0.094058
H	-3.3894402449	-1.8299052171	-0.28012941	 0.126568
H	-0.945494316	-3.3569472221	-0.8218020028	 0.079394
H	 0.4230019757	-1.0412079916	 0.4182777733	 0.102277
H	 0.1239715064	-1.1899598846	-1.3243312501	 0.105206
H	-1.6944213496	 0.4964648893	-0.9498242636	 0.065527
H	-1.9150133045	 1.1337415054	 1.3201096436	 0.089513
H	-1.5548930756	-0.3538877202	 3.2571826317	 0.089369
H	-0.130836881	-2.146323798	 2.4138947713	 0.094493
H	-1.6327778985	-2.8119049624	 3.0549072295	 0.120951
154.7347	226.866	313.4152	326.9942	385.411	419.5532	490.9546	541.8416	716.8582	735.6265	770.3752	779.114	818.6334	882.6247	907.2171	925.6467	937.4336	939.5157	994.9514	1036.7446	1077.4656	1085.1492	1092.1956	1125.0049	1148.2489	1162.5733	1170.42	1234.2307	1256.0251	1274.7933	1276.4869	1292.2354	1320.8737	1361.0906	1379.1833	1389.198	1413.3833	1456.8453	1476.919	1493.8959	1499.9955	2957.3081	3055.8726	3060.7153	3064.9983	3066.894	3072.079	3080.9688	3104.2427	3117.3355	3150.4834
C1C2CC1C1OC1CO2	C1[C@H]2C[C@@H]1[C@H]1O[C@H]1CO2	
InChI=1S/C7H10O2/c1-4-2-5(1)8-3-6-7(4)9-6/h4-7H,1-3H2	InChI=1S/C7H10O2/c1-4-2-5(1)8-3-6-7(4)9-6/h4-7H,1-3H2/t4-,5+,6-,7+/m0/s1
