19
gdb 107	4.1304476	0.9611956	0.8555348	3.1576	75.17	-0.24828	0.08925	0.33753	1361.1465	0.156439	-422.488999	-422.480763	-422.479818	-422.522562	30.657	
C	 0.5103625947	-2.393109284	 0.1590591725	-0.252801
C	-0.2381842644	-2.9080527598	 1.3655922176	 0.095417
C	-1.5141310324	-3.6248552534	 1.2533439254	-0.181834
O	-1.4785262057	-2.2590623854	 1.6728247901	-0.231946
C	 1.2014740928	-1.0553459578	 0.4226688018	-0.00608
C	 1.8292321296	-0.3863131344	-0.8557619541	-0.286328
C	 0.8426158552	 0.7753788855	-0.6754089099	 0.036771
O	 1.0697844989	 1.3253979051	 0.6266518425	-0.249546
C	 0.2510959274	 0.155959441	 0.5227612791	 0.02969
H	 1.2591312137	-3.1387087311	-0.1402696191	 0.106303
H	-0.1925665638	-2.2907746626	-0.6773023139	 0.100447
H	 0.375969308	-3.1080172793	 2.2460892329	 0.095071
H	-1.943942567	-3.7997223032	 0.2676942413	 0.113689
H	-1.8062475876	-4.3413751207	 2.0196151329	 0.116198
H	 1.8814173492	-1.1346061157	 1.2773683019	 0.080558
H	 2.8860137736	-0.1127943279	-0.8092243856	 0.108854
H	 1.6427489447	-0.9752631959	-1.7584698115	 0.102342
H	 0.4142374122	 1.4344284975	-1.4215722934	 0.100532
H	-0.7483588791	 0.1972251621	 0.9364975194	 0.122662
71.471	89.7382	130.6188	200.6694	289.6491	352.152	424.6291	455.233	534.5748	742.1138	790.4458	836.344	844.1156	856.4346	861.5052	876.4987	940.2235	961.2253	980.2115	999.9288	1018.1113	1054.4013	1086.8775	1110.1724	1120.3709	1158.2237	1170.5178	1182.4006	1214.6898	1225.2004	1232.8369	1258.9922	1267.8711	1294.7606	1329.0966	1369.6354	1385.7508	1447.3427	1470.4107	1474.34	1529.5877	3017.2846	3048.97	3059.3327	3063.5752	3082.4303	3094.1861	3116.4096	3169.1561	3183.7555	3211.7552
C(C1CO1)C1CC2OC12	C([C@@H]1CO1)[C@H]1C[C@@H]2O[C@H]12	
InChI=1S/C7H10O2/c1(5-3-8-5)4-2-6-7(4)9-6/h4-7H,1-3H2	InChI=1S/C7H10O2/c1(5-3-8-5)4-2-6-7(4)9-6/h4-7H,1-3H2/t4-,5+,6-,7+/m0/s1
