19
gdb 264	3.4478156	1.6941953	1.4581513	1.8469	73.93	-0.23944	0.08571	0.32515	950.5102	0.159926	-422.540372	-422.533584	-422.53264	-422.571155	27.992	
C	 3.0170758694	 1.433586076	 1.4802245438	-0.064547
C	 2.7410048655	 2.1676850203	 0.1420378045	-0.374978
C	 1.8474144276	 1.1592993283	-0.5190510504	 0.432723
C	 1.3786960541	 0.9234214897	-1.9537439937	-0.317177
C	 0.5678054369	-0.3945548717	-1.6494374117	-0.222707
C	 0.793019473	-0.4430983675	-0.1145086399	 0.020403
O	 0.5983587926	 0.9548678883	 0.2437323623	-0.347409
C	 2.3205132286	-0.2219587465	-0.0173736133	 0.132617
O	 2.9204640824	 0.0187520849	 1.2284958362	-0.290589
H	 4.0138004121	 1.6385178118	 1.8839612007	 0.101715
H	 2.2669712376	 1.7194767242	 2.2248260049	 0.116321
H	 2.270998151	 3.1415773879	 0.2976508253	 0.119396
H	 3.6559321231	 2.3056343749	-0.4441581909	 0.111375
H	 0.7435132673	 1.7310051343	-2.3224587382	 0.112363
H	 2.2020269069	 0.7710742907	-2.6566280806	 0.103371
H	-0.4930966444	-0.2972968696	-1.8858373025	 0.1134
H	 0.9636258742	-1.2697706312	-2.1728281176	 0.102286
H	 0.2248021071	-1.1518074079	 0.4875467682	 0.082801
H	 2.965543025	-0.855985837	-0.6367903273	 0.068636
174.001	237.4155	275.0853	339.1674	397.0935	456.9735	584.5018	664.2479	706.78	723.1054	811.4925	820.486	857.8425	889.292	894.641	925.3809	936.1475	949.0907	963.7045	1002.4375	1022.8384	1047.261	1110.0735	1140.9697	1157.7127	1174.4376	1200.6101	1218.0337	1230.288	1242.8546	1256.824	1293.0819	1301.6055	1306.6286	1348.4262	1373.2416	1405.4949	1474.3172	1479.0517	1499.8715	1515.4847	3035.7906	3041.6002	3053.6473	3062.3926	3071.5091	3083.353	3111.7707	3115.7454	3126.4803	3129.4354
C1CC23CCC(O2)C3O1	C1C[C@]23CC[C@H](O2)[C@@H]3O1	
InChI=1S/C7H10O2/c1-2-7-3-4-8-6(7)5(1)9-7/h5-6H,1-4H2	InChI=1S/C7H10O2/c1-2-7-3-4-8-6(7)5(1)9-7/h5-6H,1-4H2/t5-,6-,7-/m0/s1
