19
gdb 124	3.1690935	1.6636576	1.4241938	1.9759	73.47	-0.23241	0.0819	0.31431	968.4681	0.15968	-422.544251	-422.537148	-422.536204	-422.575362	28.718	
C	 1.5126018317	-0.2988443597	 0.4705858297	-0.401491
C	 0.7334588272	 0.0256274501	-0.7969491152	 0.226253
C	 1.4651839283	 0.7380570745	-1.9181128016	-0.328587
C	 2.1727275195	 1.9105971563	-1.1797764394	-0.098746
O	 1.4201614379	 2.1738315457	 0.0122963181	-0.304758
C	 0.7549626826	 0.9959364939	 0.3527974826	 0.391791
C	-0.6534345581	 1.0569820955	 0.8958652801	-0.154401
O	-1.2701013944	-0.1397271065	 0.412881686	-0.262398
C	-0.6925304655	-0.478950963	-0.8560670477	-0.157333
H	 1.1027249099	-1.0625649117	 1.1234512956	 0.126764
H	 2.5954308708	-0.2673155751	 0.4275849652	 0.115772
H	 2.1866049166	 0.1225526651	-2.4637530157	 0.108939
H	 0.735307523	 1.1174558369	-2.6418415649	 0.109298
H	 3.2027458599	 1.6348670333	-0.9162861519	 0.104845
H	 2.2121422533	 2.8342040258	-1.7636940533	 0.114915
H	-0.7430295042	 1.0419262031	 1.9859244512	 0.110952
H	-1.142796989	 1.9648421627	 0.5095344366	 0.099326
H	-0.8074255663	-1.5616558045	-0.969095028	 0.108823
H	-1.2281686732	 0.0157586776	-1.6831563974	 0.090033
184.7471	201.1943	238.3883	326.3923	356.3881	416.5468	529.0254	576.0812	607.7455	697.288	732.1169	816.5154	855.3659	883.1552	917.8366	923.8708	935.311	942.6033	1018.1651	1022.1323	1044.0837	1058.0971	1083.5778	1091.5265	1167.5033	1201.9314	1222.7601	1234.8849	1243.9816	1257.3444	1277.9156	1320.4083	1356.6444	1367.5374	1396.9766	1405.3852	1470.8716	1492.4408	1509.8698	1521.4183	1524.9312	2968.6288	2988.4877	3011.404	3042.6369	3070.7589	3082.8071	3083.4104	3094.9145	3132.4122	3223.4263
C1C23CCOC12COC3	C1[C@]23CCO[C@]12COC3	
InChI=1S/C7H10O2/c1-2-9-7-3-6(1,7)4-8-5-7/h1-5H2	InChI=1S/C7H10O2/c1-2-9-7-3-6(1,7)4-8-5-7/h1-5H2/t6-,7-/m0/s1
