19
gdb 311	2.6826226	1.8981478	1.3917303	0.813	74.08	-0.23674	0.08283	0.31957	970.6714	0.159361	-422.548197	-422.540859	-422.539914	-422.580119	28.768	
C	 0.6138554635	 1.6866286705	-0.0523146777	-0.378392
C	 0.2641868671	 0.2168902495	 0.165845059	-0.140454
C	 1.1568805612	-0.6511462864	 1.0233026832	-0.094782
O	 2.4870970831	-0.5403239734	 0.494650925	-0.277895
C	 2.4742612775	 0.0309837694	-0.805683677	 0.053093
C	 2.5417581804	-0.9431968158	-2.015572164	-0.264317
C	 1.2056901168	-0.7081118304	-2.7614285397	-0.102022
O	 0.7356405965	 0.5814766966	-2.339837955	-0.288508
C	 1.1082085422	 0.6674370141	-1.0071559967	 0.426159
H	-0.2058094013	 2.3181223241	-0.3773517162	 0.125987
H	 1.3325458083	 2.1712882856	 0.6034267382	 0.120328
H	-0.7676969788	-0.0765188607	 0.015284298	 0.099431
H	 1.2061389427	-0.3558941623	 2.0785336389	 0.105855
H	 0.8104883822	-1.6948556317	 0.9818407795	 0.095414
H	 3.30436602	 0.7443564459	-0.837049828	 0.084869
H	 3.394837733	-0.7003205642	-2.6534929295	 0.110791
H	 2.657017365	-1.9746536663	-1.675992082	 0.116444
H	 1.3010980708	-0.684211748	-3.8488055024	 0.111059
H	 0.4656662699	-1.4750150064	-2.4914220936	 0.096939
81.4848	142.9376	204.21	342.0834	392.8572	419.4441	535.145	582.8118	679.0699	704.7943	763.3989	805.1864	831.7209	883.5356	898.9798	928.8623	948.4173	992.3892	997.6638	1025.8034	1044.116	1060.1506	1074.2686	1100.1722	1121.1497	1135.5002	1211.2169	1221.1176	1226.8906	1262.0314	1270.1482	1301.0993	1343.6235	1360.6214	1375.6166	1391.965	1414.4059	1482.3975	1483.936	1520.4106	1522.7793	2987.8461	3001.4361	3041.8201	3047.8279	3072.6514	3105.8206	3118.498	3125.4451	3187.7899	3214.0982
C1C2COC3CCOC123	C1[C@@H]2CO[C@H]3CCO[C@@]123	
InChI=1S/C7H10O2/c1-2-9-7-3-5(7)4-8-6(1)7/h5-6H,1-4H2	InChI=1S/C7H10O2/c1-2-9-7-3-5(7)4-8-6(1)7/h5-6H,1-4H2/t5-,6+,7+/m1/s1
