19
gdb 272	3.4535215	1.3812469	1.2432756	2.6735	74.37	-0.24546	0.07553	0.32099	1062.7975	0.158343	-422.526229	-422.518648	-422.517704	-422.558535	29.291	
C	-1.566016154	 3.211519119	 1.3537167028	-0.301669
C	-2.5374750861	 2.3377582422	 0.60555192	-0.053256
C	-2.3500202298	 2.283680009	-0.8989682792	-0.111383
O	-0.9492213402	 2.087314775	-1.1026755951	-0.299119
C	-0.4103050827	 1.3734641109	-0.0024576915	 0.359634
C	-0.1237038784	-0.1385935355	-0.2123967546	-0.130918
O	 1.2748025607	 0.0553506744	 0.0757820677	-0.273663
C	 1.1235424738	 1.4899687896	 0.0973230996	-0.127304
C	-1.2755773772	 1.7404765997	 1.1832320478	-0.106744
H	-0.9717409373	 3.9225759692	 0.7879202714	 0.123921
H	-1.8558721916	 3.5458008743	 2.3433238186	 0.114223
H	-3.5155514322	 2.1287516428	 1.0215046824	 0.093336
H	-2.9320591943	 1.4533366024	-1.3282292892	 0.096626
H	-2.626104452	 3.2044081112	-1.4235801057	 0.111075
H	-0.5948932709	-0.8433186764	 0.4836049062	 0.095831
H	-0.2973579888	-0.4656610232	-1.245789466	 0.101601
H	 1.5250895047	 1.9376650937	 1.0133956335	 0.103186
H	 1.5724535131	 1.9713949722	-0.7801946256	 0.107557
H	-1.2850574967	 1.0831718694	 2.044073287	 0.097068
76.8903	124.9825	202.2844	320.8411	347.0959	371.1393	452.1794	510.0064	690.8236	748.2561	789.2265	833.4411	848.4987	890.7169	910.1917	952.7437	979.5569	987.5104	1008.51	1031.0111	1033.3833	1076.8151	1080.8919	1102.0311	1113.0966	1119.3358	1151.053	1159.0303	1185.1435	1204.0124	1226.5333	1251.4868	1298.3211	1347.9047	1360.7031	1381.7327	1405.1804	1479.6198	1498.4457	1521.5597	1526.6856	2984.0878	3006.1153	3022.1491	3059.6294	3068.6959	3072.0598	3129.0017	3183.0829	3190.4923	3219.9608
C1C2COC3(COC3)C12	C1[C@H]2COC3(COC3)[C@@H]12	
InChI=1S/C7H10O2/c1-5-2-9-7(6(1)5)3-8-4-7/h5-6H,1-4H2	InChI=1S/C7H10O2/c1-5-2-9-7(6(1)5)3-8-4-7/h5-6H,1-4H2/t5-,6-/m0/s1
