19
gdb 121	2.9582453	1.697484	1.3763515	2.5847	74.34	-0.24384	0.07757	0.32141	991.4723	0.158716	-422.522618	-422.5153	-422.514356	-422.553986	29.425	
C	-0.926459988	-0.3179170851	-1.7664183476	-0.296371
C	-0.5877042469	-1.7432858038	-1.1873938549	-0.300732
C	-0.1948323487	-1.0567665506	 0.1317919791	 0.31527
C	 0.927439713	-1.2434301404	 1.109305934	-0.185616
O	 1.2970108997	 0.0071524508	 1.6773732254	-0.242047
C	 1.5487982803	 1.0254469603	 0.720359276	-0.068039
C	 0.2669435338	 1.5013562081	 0.0008664935	-0.325723
C	-0.5039204685	 0.2762297126	-0.4109608618	 0.344223
O	-1.3401764674	-0.3285277942	 0.5865909093	-0.308676
H	-0.2633838473	-0.0361050485	-2.5884491688	 0.105131
H	-1.9635051522	-0.131313923	-2.055418562	 0.110874
H	-1.4107777818	-2.4573740027	-1.1127876375	 0.111553
H	 0.2553538324	-2.2110332334	-1.7019368714	 0.106254
H	 0.6561093346	-1.8866511498	 1.9523618707	 0.119438
H	 1.7840481179	-1.7032427009	 0.5865697699	 0.090766
H	 2.0149107394	 1.8448152656	 1.2743312508	 0.111439
H	 2.2741748095	 0.6652905894	-0.0288221733	 0.084248
H	-0.3391132247	 2.120462864	 0.669223405	 0.124752
H	 0.5368480049	 2.1119432116	-0.8674265764	 0.103256
133.1461	203.9369	293.8871	314.4665	356.3001	406.9975	458.5808	521.9625	543.0027	681.7302	740.8193	749.1763	769.1229	835.7015	891.0948	911.1875	925.8623	965.453	988.2827	1017.2176	1039.3103	1104.8038	1114.4106	1139.9131	1177.0399	1194.1065	1219.0699	1224.2437	1259.1869	1267.0104	1291.3881	1317.8171	1365.9054	1388.1264	1418.5292	1454.0594	1463.9359	1469.8889	1485.0732	1495.8319	1500.2334	2959.5343	2964.1878	3047.889	3060.5949	3068.6161	3075.0694	3087.7465	3097.6648	3112.1952	3129.0708
C1CC23COCCC12O3	C1C[C@@]23COCC[C@@]12O3	
InChI=1S/C7H10O2/c1-2-7-5-8-4-3-6(1,7)9-7/h1-5H2	InChI=1S/C7H10O2/c1-2-7-5-8-4-3-6(1,7)9-7/h1-5H2/t6-,7+/m0/s1
