19
gdb 355	3.8957608	1.1886714	1.1246273	1.1579	75.3	-0.23676	0.05997	0.29673	1150.0108	0.157102	-422.467604	-422.459695	-422.458751	-422.501165	29.637	
C	 0.6183768339	 0.8304037821	-1.2791884649	-0.057544
C	-0.0211749266	-0.1577192302	-0.283829454	-0.299047
C	 0.9500218953	 0.4711799884	 0.7396423827	-0.011108
O	 1.4381632169	 1.4163109997	-0.2414506705	-0.292951
C	 0.3701624091	 1.1800763274	 1.9257960441	 0.442052
C	 1.095602344	 2.0416098671	 2.9944382251	-0.258332
C	-0.3506724478	 1.7568035401	 3.4571258021	 0.047586
C	-0.8731566653	 2.102625185	 2.0440342369	-0.261639
O	-0.1851449789	 0.3456822481	 3.0258842422	-0.353102
H	 1.2298809044	 0.3732739629	-2.0667113068	 0.104638
H	-0.051483236	 1.5689951933	-1.7341259536	 0.107078
H	-1.0762591016	 0.0163568419	-0.0692047501	 0.118946
H	 0.1348685719	-1.2166063817	-0.4900827579	 0.116918
H	 1.7475871418	-0.2018662316	 1.0832289115	 0.084153
H	 1.8726746586	 1.5199427627	 3.5544461133	 0.10589
H	 1.3652895299	 3.0659926861	 2.7292410446	 0.103965
H	-0.8164653187	 1.9302114487	 4.4266976777	 0.096163
H	-1.8254487573	 1.6403056663	 1.7809291854	 0.103838
H	-0.7811458635	 3.1335890936	 1.6955216122	 0.102495
41.5324	75.6594	152.6011	202.9027	350.4815	410.4204	522.6227	592.4703	640.8216	740.3591	779.7251	802.609	831.0647	896.0534	917.0027	933.1756	944.5205	955.3982	984.6989	1006.0794	1032.1373	1037.4903	1074.6691	1089.7313	1117.2723	1122.7395	1154.9199	1168.3316	1210.3326	1215.4088	1230.8356	1241.7622	1255.8727	1273.1853	1329.3739	1356.2345	1400.7227	1465.905	1488.2186	1513.2893	1531.7866	3009.696	3021.3845	3061.8658	3065.3796	3072.8645	3089.873	3124.5833	3144.7659	3147.7117	3153.1535
C1CC(O1)C12CC(C1)O2	C1C[C@@H](O1)[C@@]12C[C@@H](C1)O2	
InChI=1S/C7H10O2/c1-2-8-6(1)7-3-5(4-7)9-7/h5-6H,1-4H2	InChI=1S/C7H10O2/c1-2-8-6(1)7-3-5(4-7)9-7/h5-6H,1-4H2/t5-,6-,7+/m1/s1
