19
gdb 282	2.9234478	1.7311005	1.2672909	1.8793	75.24	-0.23705	0.07614	0.31319	1017.3824	0.158464	-422.504821	-422.497503	-422.496559	-422.53626	29.573	
C	 0.2968222572	-2.2784159439	-2.601803679	-0.30871
C	-0.338515413	-0.9962552691	-2.1055341347	-0.054322
C	 0.405189212	 0.3320632567	-2.0839533381	-0.10348
O	 1.609601046	 0.3335331449	-1.3317076441	-0.241917
C	 1.3633337958	 0.2908192306	 0.038471016	 0.087486
C	 2.3598758195	-0.455609634	 0.8780162991	-0.347402
C	 0.9989618639	-1.0506194976	 0.6315139787	 0.074672
O	 0.9936939194	-2.1262382879	-0.2541394296	-0.245848
C	-0.0767181519	-2.1463004838	-1.1560600209	 0.103895
H	-0.2695800176	-2.9387371796	-3.2489195768	 0.109467
H	 1.3642854517	-2.2432009156	-2.7925173246	 0.13173
H	-1.3876027059	-0.8704932644	-2.3658228262	 0.087906
H	 0.6920315697	 0.6197001538	-3.1014549382	 0.110607
H	-0.2708429937	 1.1133698797	-1.7006947855	 0.089447
H	 0.8967727995	 1.189620046	 0.4450977453	 0.082923
H	 3.1750609632	-0.9250978057	 0.3399753943	 0.13763
H	 2.6017490432	-0.0753850844	 1.8636253511	 0.115052
H	 0.2753389452	-1.102741231	 1.4448850892	 0.083817
H	-0.9474077241	-2.6882102746	-0.7867736459	 0.087047
120.7545	219.4135	274.2951	319.0988	365.1164	402.1283	443.0511	480.8936	696.9688	715.4429	761.4341	768.8703	793.8215	805.6333	841.7188	883.8801	960.2922	981.8335	1040.4203	1046.8128	1066.188	1073.6184	1094.8332	1106.156	1122.2093	1133.2303	1144.4856	1158.6088	1163.753	1188.0513	1235.9022	1260.7865	1317.8879	1339.7353	1382.9007	1396.7001	1407.3616	1426.4702	1469.3917	1487.7908	1500.3977	2973.5195	3061.7811	3084.1303	3095.4821	3102.7349	3127.1724	3134.1972	3145.182	3225.5505	3240.3454
C1C2COC3CC3OC12	C1[C@@H]2CO[C@@H]3C[C@@H]3O[C@H]12	
InChI=1S/C7H10O2/c1-4-3-8-6-2-7(6)9-5(1)4/h4-7H,1-3H2	InChI=1S/C7H10O2/c1-4-3-8-6-2-7(6)9-5(1)4/h4-7H,1-3H2/t4-,5-,6-,7+/m1/s1
