19
gdb 377	3.2083154	1.5704503	1.4614307	1.7794	73.64	-0.24645	0.08927	0.33572	979.8266	0.159492	-422.552367	-422.545299	-422.544354	-422.583704	28.589	
C	 0.4972194329	 1.3565243622	-0.0771091163	-0.318941
C	 1.5594742056	 0.2803667078	-0.1104112083	-0.329698
C	 0.1202767064	-0.0797558291	 0.1247790398	 0.401484
C	-0.4088458219	-0.6769199942	 1.4430847433	-0.329307
C	-1.462239883	-1.6575939558	 0.8777346855	 0.040016
C	-2.6275711091	-0.8532024894	 0.2644013033	-0.082723
O	-2.0282609667	-0.3344014367	-0.9348447702	-0.269594
C	-0.6978124205	-0.8505113401	-0.9093998579	 0.080492
O	-0.8257236088	-2.1326371115	-0.3235680397	-0.247201
H	 0.4662862398	 2.0192928038	 0.7815997138	 0.111434
H	 0.2134677253	 1.830109426	-1.0114969379	 0.119589
H	 2.0065762813	 0.0281740612	-1.0671937442	 0.113353
H	 2.2425275916	 0.2081621463	 0.7301888164	 0.110998
H	 0.3693646434	-1.2215937944	 1.9849086838	 0.109851
H	-0.8457943079	 0.067284939	 2.1149483844	 0.104441
H	-1.7438843013	-2.4936756371	 1.5155619996	 0.088966
H	-3.4796149551	-1.4902550469	 0.0019352037	 0.106766
H	-2.9698726078	-0.0349683179	 0.9075946753	 0.101632
H	-0.3063131744	-0.9080491032	-1.9250454344	 0.088442
102.3475	224.1463	266.537	300.8933	388.5936	472.7879	526.1722	582.3511	726.3813	774.1225	807.3544	831.7272	859.1057	883.2771	901.0694	939.2552	948.0429	957.3526	970.3223	985.3719	1009.2303	1033.9116	1059.0249	1077.5942	1093.9344	1099.6796	1177.4147	1186.0193	1192.4241	1245.0693	1256.0161	1286.0573	1288.7004	1320.8038	1329.4551	1373.4101	1395.0604	1468.5078	1489.5263	1506.7515	1521.0352	3029.6161	3053.4351	3073.9249	3100.9684	3120.6781	3126.9826	3129.7904	3140.9968	3198.769	3214.2605
C1CC11CC2COC1O2	C1CC21C[C@H]1CO[C@@H]2O1	
InChI=1S/C7H10O2/c1-2-7(1)3-5-4-8-6(7)9-5/h5-6H,1-4H2	InChI=1S/C7H10O2/c1-2-7(1)3-5-4-8-6(7)9-5/h5-6H,1-4H2/t5-,6+/m0/s1
