19
gdb 126	3.3043738	1.630118	1.3455226	2.6198	73.67	-0.24982	0.08445	0.33426999999999996	994.7603	0.159374	-422.558332	-422.551112	-422.550168	-422.589592	28.899	
C	-1.255913585	 0.7828996293	-1.6070154262	-0.207879
C	 0.1859598478	 0.6679220747	-2.1820432232	-0.316908
C	 1.0132571357	 0.3392323897	-0.960926596	 0.33701
C	 2.320772124	-0.4011173319	-0.8305669019	-0.160758
O	 2.2778042297	-1.0169003139	 0.4595843955	-0.262324
C	 0.9228131049	-1.1685533457	 0.8914703415	-0.160758
C	 0.1407121523	-0.1397678236	 0.1138939927	 0.33701
C	-1.2948980505	-0.1450227877	-0.3578893461	-0.316908
O	 0.7317127822	 1.1701417616	 0.179127112	-0.328346
H	-1.4368597258	 1.813217491	-1.2947412866	 0.125225
H	-2.0204487607	 0.5233714695	-2.3433294353	 0.100811
H	 0.2661865142	-0.1574840584	-2.9001003527	 0.105521
H	 0.5008874673	 1.5814253329	-2.6951542129	 0.112232
H	 2.4049968693	-1.149800808	-1.6353920576	 0.09234
H	 3.2083929924	 0.2388313127	-0.8561425439	 0.116819
H	 0.5354659089	-2.176115043	 0.6675376301	 0.09234
H	 0.9090158861	-1.023455434	 1.9762815944	 0.116819
H	-1.5776855187	-1.1697122007	-0.6287777331	 0.105521
H	-2.0077112598	 0.2042828878	 0.3949940038	 0.112232
180.0457	209.8261	211.635	294.5235	331.0491	456.5269	483.2877	540.0542	634.6577	687.9656	696.5071	817.0658	833.8345	881.2213	888.2348	920.408	931.5317	987.6089	994.4367	1020.684	1037.8206	1071.2718	1119.5647	1163.8327	1189.6947	1209.1745	1222.1978	1234.5443	1238.6483	1268.0431	1324.3606	1332.619	1341.0425	1382.2106	1389.7564	1448.1423	1481.8608	1484.1629	1499.1136	1502.2102	1512.9417	2970.3549	2977.1083	3036.5736	3038.3804	3072.4107	3073.0739	3075.3875	3086.2802	3086.6005	3122.943
C1CC23COCC2(C1)O3	C1C[C@]23COC[C@@]2(C1)O3	
InChI=1S/C7H10O2/c1-2-6-4-8-5-7(6,3-1)9-6/h1-5H2	InChI=1S/C7H10O2/c1-2-6-4-8-5-7(6,3-1)9-6/h1-5H2/t6-,7+
