19
gdb 203	2.6487546	2.0745129	1.5919836	1.8235	73.5	-0.23757	0.08074	0.31831	909.7438	0.159818	-422.539879	-422.533105	-422.532161	-422.570524	28.357	
C	-0.0207909839	 0.512511181	-0.0123988791	-0.398477
C	 1.2064689186	 0.0305760148	-0.776485261	 0.050186
O	 2.5203169303	 0.4926078235	-0.5418404824	-0.270423
C	 2.9045833492	-0.2484671434	 0.6243192007	 0.177864
C	 3.273230253	-1.727561586	 0.3823808647	-0.223738
C	 2.0810654165	-2.6296336927	-0.0599840815	-0.204969
C	 0.6909799216	-2.1750828552	 0.4830346102	-0.290338
C	 0.7709250541	-0.6729976856	 0.4717924956	 0.369525
O	 1.7431125158	-0.2447965936	 1.4304003403	-0.281197
H	 0.0420245397	 1.3956768511	 0.6125231979	 0.132097
H	-0.9695251966	 0.3597072471	-0.518711433	 0.116728
H	 1.0525635875	-0.4056563841	-1.7578319279	 0.100447
H	 3.7070658502	 0.3042791306	 1.1194165093	 0.089896
H	 4.0894660894	-1.8034537018	-0.3435610199	 0.105945
H	 3.666225973	-2.0829379743	 1.3422014513	 0.110895
H	 2.0255723383	-2.6186909119	-1.1534866359	 0.108201
H	 2.288988875	-3.6662652354	 0.2243138154	 0.097158
H	-0.108210766	-2.5612525057	-0.1576566631	 0.099923
H	 0.5075570742	-2.5362552284	 1.5002451882	 0.110277
198.5415	236.406	335.814	346.8405	409.956	472.3747	490.4739	639.0494	651.0529	747.8914	788.4484	806.1014	833.5724	859.9807	884.339	900.4886	920.3358	947.2037	974.1434	1011.7183	1036.5213	1058.195	1071.7592	1088.7674	1116.2094	1126.505	1139.4997	1215.3674	1229.1232	1254.7932	1290.8876	1336.0095	1346.1599	1358.3138	1366.8997	1377.4176	1410.077	1466.3902	1474.3795	1480.2684	1501.9204	3036.6724	3041.9126	3047.0907	3072.71	3085.5818	3094.1667	3096.6519	3127.3116	3160.6984	3228.4229
C1C2OC3CCCC12O3	C1[C@H]2O[C@@H]3CCC[C@]12O3	
InChI=1S/C7H10O2/c1-2-6-8-5-4-7(5,3-1)9-6/h5-6H,1-4H2	InChI=1S/C7H10O2/c1-2-6-8-5-4-7(5,3-1)9-6/h5-6H,1-4H2/t5-,6+,7+/m1/s1
