19
gdb 42	5.0153218	0.8582188	0.7739823	0.8075	80.17	-0.19004	0.04025	0.23029	1523.2761	0.156021	-422.570415	-422.560882	-422.559938	-422.606044	33.635	
C	 1.274103387	-0.315400351	 1.2143166317	-0.365088
C	 0.890077525	 0.2992103425	-0.1419513935	-0.298172
C	 1.715038436	 1.498143947	-0.5047116999	 0.291601
C	 1.2827729111	 2.7780616713	-0.6278105672	-0.148049
O	 2.3315477976	 3.6118202085	-0.9613464694	-0.196038
C	 3.4279788366	 2.8253464336	-1.0439081191	 0.481601
O	 4.5952590831	 3.395848858	-1.3590788424	-0.268524
C	 4.5915141147	 4.8017813123	-1.5958672015	-0.244442
C	 3.1317028649	 1.5253948491	-0.7774198772	-0.449155
H	 0.6568304462	-1.191975559	 1.4350928195	 0.1096
H	 2.3222006005	-0.6304562228	 1.2228928833	 0.12052
H	 1.1401783329	 0.4104174561	 2.0223152867	 0.119829
H	 0.9927161881	-0.4653991545	-0.9229498615	 0.1071
H	-0.1685305912	 0.5825935334	-0.128447581	 0.100324
H	 0.3242440421	 3.2579195981	-0.5284866356	 0.127387
H	 4.2633957403	 5.3527036369	-0.7084826227	 0.134256
H	 5.6231322938	 5.0629181768	-1.8335381148	 0.136699
H	 3.939218096	 5.0610252456	-2.4361422201	 0.134099
H	 3.8249956453	 0.7006952483	-0.7794716752	 0.106453
29.1597	63.8672	123.0877	173.111	188.6703	240.5775	267.7337	340.0544	424.4469	491.4892	602.678	631.1573	673.9729	693.2624	722.9496	763.1058	791.1008	948.0546	958.793	1006.7367	1058.9401	1063.9014	1089.7857	1125.8394	1177.2972	1192.8605	1201.278	1244.2427	1287.3139	1329.606	1359.8148	1407.2655	1423.4341	1481.5329	1483.3527	1485.6269	1496.6006	1502.7307	1507.0222	1612.7815	1667.7835	3020.5707	3032.4656	3036.3389	3060.1313	3099.0206	3107.2794	3111.4549	3148.6654	3266.7761	3284.1334
CCC1=COC(OC)=C1	CCc1coc(OC)c1	
InChI=1S/C7H10O2/c1-3-6-4-7(8-2)9-5-6/h4-5H,3H2,1-2H3	InChI=1S/C7H10O2/c1-3-6-4-7(8-2)9-5-6/h4-5H,3H2,1-2H3
