19
gdb 176	3.5721247	1.5866727	1.401182	2.4718	73.03	-0.23933	0.08276	0.32209	965.2917	0.160991	-422.543194	-422.536626	-422.535682	-422.573987	26.941	
C	 1.2019943891	-0.0363866738	-0.4898061344	-0.233392
C	 0.9480102823	 1.399450849	 0.0234945224	 0.0549
O	-0.4451745641	 1.0191499065	 0.2652019483	-0.295001
C	-0.2593501998	 0.2006892034	-0.9346364813	 0.054902
C	-0.1357888674	 1.2715966885	-2.0405890797	-0.029876
C	-1.3831107824	 2.1381760771	-2.2873058646	-0.10076
O	-0.9533222857	 3.4904193694	-2.1864397144	-0.249553
C	 0.0333323933	 3.5445778911	-1.1631926533	-0.100759
C	 0.8351335779	 2.235632635	-1.270066572	-0.029876
H	 1.9706677497	-0.2037921149	-1.2489784692	 0.095943
H	 1.2740546324	-0.7592378425	 0.3237696578	 0.112314
H	 1.4467480229	 1.8266393404	 0.8936586283	 0.082931
H	-0.9943199803	-0.5970454077	-1.0435148134	 0.082931
H	 0.2848560056	 0.8744503325	-2.9666991875	 0.076685
H	-1.8166978854	 2.0062027464	-3.2821836277	 0.101656
H	-2.1531807164	 1.9193472382	-1.532515458	 0.099308
H	 0.6351597647	 4.4406912723	-1.3363413164	 0.101656
H	-0.4398091487	 3.6205609293	-0.1727550425	 0.09931
H	 1.7976188923	 2.3765023797	-1.7661750026	 0.076683
170.5545	176.0231	307.046	363.5314	441.44	607.7978	608.1466	653.9077	724.2238	825.1525	863.4689	864.0526	874.1269	877.4202	911.7505	950.5941	965.6917	1005.0361	1018.9167	1031.6792	1060.0953	1060.7471	1102.1314	1114.7631	1124.4329	1186.4923	1188.3663	1226.4064	1238.2072	1264.0849	1278.2875	1279.8237	1285.8663	1317.7514	1326.9955	1340.6184	1376.3946	1406.6037	1487.3982	1501.0407	1515.6168	2991.8786	2997.5525	3064.2289	3076.0345	3082.1924	3092.2508	3100.4967	3120.5528	3124.4255	3141.5307
C1C2OC1C1COCC21	C1[C@@H]2O[C@H]1[C@H]1COC[C@@H]21	
InChI=1S/C7H10O2/c1-6-4-2-8-3-5(4)7(1)9-6/h4-7H,1-3H2	InChI=1S/C7H10O2/c1-6-4-2-8-3-5(4)7(1)9-6/h4-7H,1-3H2/t4-,5+,6+,7-
