19
gdb 299	2.6208622	2.0706287	1.8222429	2.3706	72.87	-0.23033	0.08092	0.31125	867.9235	0.161262	-422.549379	-422.543025	-422.542081	-422.579729	26.748	
C	 1.4953862165	 0.9347637298	-0.8645408163	-0.283355
C	 0.8442412758	 1.4860485722	 0.4345671554	 0.072172
O	 1.7262771905	 1.4182474859	 1.54009106	-0.263387
C	 2.5726659257	 0.2718785445	 1.4924657697	-0.077793
C	 1.8396076998	-0.9409213675	 0.8980787892	-0.079826
C	 0.6897894903	-1.3852614857	 1.8190707972	-0.069003
O	-0.3695599978	-0.4507429861	 1.5954123792	-0.26437
C	-0.0971846854	 0.2182665156	 0.3910414882	 0.137063
C	 1.060478239	-0.4685491235	-0.3674813063	-0.080867
H	 0.9268645456	 1.2314743748	-1.7495557581	 0.106032
H	 2.5527331	 1.1446869692	-1.036474452	 0.107014
H	 0.4011590871	 2.4828468038	 0.4438355829	 0.07815
H	 3.4716715679	 0.4883326012	 0.8975300834	 0.093498
H	 2.8964883468	 0.0824739119	 2.5206149207	 0.10693
H	 2.5493105146	-1.7492744481	 0.7006365038	 0.075081
H	 0.3479910135	-2.4011629485	 1.5710644437	 0.090509
H	 0.9617321733	-1.363484699	 2.8796233236	 0.107092
H	-1.0216764832	 0.3924964953	-0.165066378	 0.077237
H	 0.8630747201	-1.2686560059	-1.0832339263	 0.067822
177.4254	272.5931	379.9959	402.9713	434.2852	537.2807	585.8522	679.1358	743.4815	766.5375	816.896	834.5948	891.5553	892.9277	940.4945	951.3384	966.0262	982.5613	1007.6842	1020.3154	1063.8702	1091.7423	1115.2294	1132.3372	1139.3175	1186.6841	1203.9368	1217.2698	1229.9956	1255.9286	1264.5828	1293.9574	1299.8795	1334.2646	1344.6565	1360.4343	1393.7149	1415.3298	1487.2679	1517.1354	1529.34	2991.8162	2996.9428	3067.1991	3068.1993	3072.6827	3077.087	3079.6707	3092.8187	3105.579	3121.8652
C1C2OCC3COC2C13	C1[C@@H]2OC[C@H]3CO[C@@H]2[C@@H]13	
InChI=1S/C7H10O2/c1-5-4-2-8-6(1)7(5)9-3-4/h4-7H,1-3H2	InChI=1S/C7H10O2/c1-5-4-2-8-6(1)7(5)9-3-4/h4-7H,1-3H2/t4-,5-,6-,7+/m0/s1
