19
gdb 89	5.5961045	0.7206523	0.6703543	1.8869	78.36	-0.25437	0.05962	0.31399	1661.8055	0.155852	-422.524693	-422.515234	-422.514289	-422.560972	33.097	
C	-0.1162921868	-0.0973771022	 0.2499147072	-0.43465
C	 1.084560577	-0.0804704641	 0.2017447177	 0.291583
C	 2.5396589446	-0.0306240168	 0.139685125	-0.357708
C	 3.0756249871	 1.3901655381	-0.1208913345	-0.209084
C	 4.5902406687	 1.4112285452	-0.2101753013	 0.219615
O	 5.0480148971	 2.7267503135	-0.4041993176	-0.25111
C	 6.3777109318	 2.7311018871	 0.0907199741	-0.112539
C	 6.3003435817	 1.775697559	 1.2945039487	-0.085645
O	 5.1736894151	 0.9525000591	 1.0040041801	-0.273961
H	-1.1765358315	-0.1251991698	 0.2951576867	 0.192516
H	 2.966639052	-0.403584892	 1.0774320307	 0.151479
H	 2.8938148112	-0.7081599016	-0.6489695052	 0.127864
H	 2.6659210655	 1.7817232296	-1.0570632351	 0.120295
H	 2.7701837793	 2.0632939301	 0.6851914841	 0.121387
H	 4.946249088	 0.7647971688	-1.0368466299	 0.060165
H	 7.0797284605	 2.3572414843	-0.6699710139	 0.100917
H	 6.6489591362	 3.7555157433	 0.3530437021	 0.121213
H	 7.2015957495	 1.1618603669	 1.4029743835	 0.107216
H	 6.1235899131	 2.3120210313	 2.2345520175	 0.110448
21.2371	70.5886	93.2936	102.6732	187.6899	240.6325	347.3957	364.7021	443.6724	563.8135	615.3762	636.5555	682.5626	722.011	772.7382	875.1402	884.9737	940.5587	951.5013	1017.6981	1045.7234	1053.984	1074.5219	1094.9719	1153.1424	1169.7795	1207.2498	1224.9546	1245.0033	1275.2348	1305.1765	1340.2546	1369.6169	1379.5049	1399.2105	1437.1545	1472.6851	1487.0383	1513.5259	1530.1745	2240.5382	2904.2956	2991.7212	3020.3491	3025.1625	3060.1458	3066.1218	3067.3959	3113.3619	3113.6878	3508.2137
C#CCCC1OCCO1	C#CCCC1OCCO1	
InChI=1S/C7H10O2/c1-2-3-4-7-8-5-6-9-7/h1,7H,3-6H2	InChI=1S/C7H10O2/c1-2-3-4-7-8-5-6-9-7/h1,7H,3-6H2
