19
gdb 378	3.258864	1.5351588	1.444967	1.7577	73.47	-0.24907	0.0879	0.33697	984.6183	0.159534	-422.552663	-422.545626	-422.544682	-422.583918	28.57	
C	 1.16275281	 1.2210250893	-0.0595368832	-0.328241
C	 1.5509248628	-0.2408617916	-0.1025529413	-0.338865
C	 0.1048299339	 0.1560203162	-0.0319616576	 0.415678
C	-0.8917014456	-0.1154800873	-1.176858938	-0.332851
C	-2.1284615041	-0.5054442137	-0.3405340252	 0.188045
O	-2.6858688159	 0.6756061461	 0.2343923457	-0.277476
C	-1.8157120318	 0.9780380056	 1.3395092788	-0.084403
C	-0.7496373153	-0.127254518	 1.2050330034	-0.056186
O	-1.5775577588	-1.2155467456	 0.7536937269	-0.248167
H	 1.3644862676	 1.7733266737	 0.8535625985	 0.111031
H	 1.2743534086	 1.8103267661	-0.9637410422	 0.116294
H	 1.9195353387	-0.643700821	-1.0405924213	 0.114232
H	 2.0139389369	-0.6733448578	 0.7789896146	 0.11324
H	-1.0953837848	 0.7575500175	-1.8009792958	 0.112086
H	-0.5702485935	-0.9443912786	-1.8148169688	 0.10679
H	-2.9126058617	-1.0810943042	-0.8309511934	 0.092457
H	-1.4048742695	 1.9873240148	 1.2359759922	 0.106248
H	-2.3742111332	 0.9032412862	 2.2796882457	 0.103651
H	-0.2170112843	-0.3975708775	 2.1160266709	 0.086437
113.2624	225.0715	276.6703	302.621	391.8905	445.2089	529.3402	622.0827	696.3475	775.4472	813.0598	821.9025	859.9162	888.862	892.0075	925.4011	960.3432	965.1248	979.8257	999.0092	1015.7308	1041.6218	1056.1043	1060.5864	1082.0936	1100.8121	1179.9133	1186.3263	1192.567	1239.7402	1265.2267	1268.7927	1287.2609	1322.9408	1331.5711	1377.7299	1393.1116	1468.0439	1482.5895	1506.0725	1519.9482	3030.7903	3054.7133	3081.3096	3111.1567	3120.4572	3124.1303	3131.3889	3137.8265	3198.0172	3212.8223
C1CC11CC2OCC1O2	C1CC21C[C@@H]1OC[C@H]2O1	
InChI=1S/C7H10O2/c1-2-7(1)3-6-8-4-5(7)9-6/h5-6H,1-4H2	InChI=1S/C7H10O2/c1-2-7(1)3-6-8-4-5(7)9-6/h5-6H,1-4H2/t5-,6-/m1/s1
