19
gdb 254	2.8419415	1.7394531	1.2709523	2.0087	74.03	-0.24016	0.07735	0.31751	1009.4488	0.158671	-422.517242	-422.509832	-422.508888	-422.549084	29.218	
C	-1.2443101807	 2.2082840094	-2.1113707959	-0.266144
C	-0.5473770903	 1.0302201343	-2.8042826336	-0.048254
O	 0.7459242347	 1.4696690855	-3.2628935431	-0.309182
C	 0.6068617685	 1.1146610552	-1.8941963122	 0.411082
C	 1.4786721936	 0.0757708428	-1.2538298678	-0.182108
O	 1.2515829405	 0.0266767717	 0.1508368108	-0.257413
C	-0.0616121515	 0.3989547238	 0.5510812146	-0.079666
C	-0.2866129731	 1.9037022063	 0.3400955455	-0.227957
C	-0.0238588839	 2.2988830145	-1.1273379634	-0.069348
H	-1.4402838428	 3.0801870265	-2.7402475921	 0.111403
H	-2.166485432	 1.9100386444	-1.6039817835	 0.104337
H	-0.9792975619	 0.1802329348	-3.321439536	 0.102192
H	 1.3012531729	-0.9077587338	-1.7177636573	 0.099859
H	 2.5387515044	 0.3209360876	-1.3895407476	 0.120357
H	-0.8197579644	-0.1995781847	 0.0206220951	 0.090811
H	-0.1283836794	 0.1457133898	 1.6128022751	 0.110622
H	-1.2966803865	 2.1869436907	 0.6593021072	 0.097188
H	 0.4171050755	 2.4315696407	 0.9919540402	 0.112057
H	 0.5444661264	 3.2290282506	-1.1992103559	 0.080166
87.3049	157.9481	272.4293	329.5772	375.5777	441.9232	451.8515	469.5348	575.6014	664.1482	760.8925	810.2345	850.0881	870.8499	895.2894	932.7126	952.8463	960.8394	986.469	1022.63	1058.9763	1098.2767	1100.6404	1119.7008	1171.0261	1177.5012	1208.0222	1236.572	1256.1448	1268.0903	1273.1102	1300.5592	1330.9659	1363.0884	1378.4501	1407.4573	1460.4862	1476.1695	1483.0457	1502.2585	1508.6487	2973.6278	2978.5953	3032.8859	3051.355	3057.0059	3072.1733	3083.1962	3090.6222	3115.3386	3177.6914
C1C2OC22COCCC12	C1[C@H]2O[C@@]32COCC[C@H]13	
InChI=1S/C7H10O2/c1-2-8-4-7-5(1)3-6(7)9-7/h5-6H,1-4H2	InChI=1S/C7H10O2/c1-2-8-4-7-5(1)3-6(7)9-7/h5-6H,1-4H2/t5-,6-,7+/m1/s1
