19
gdb 376	3.4379804	1.4198872	1.3177565	2.6674	73.63	-0.2473	0.08019	0.32749	1024.608	0.158947	-422.532262	-422.525131	-422.524187	-422.56366	28.932	
C	 1.0661048202	 1.0298557274	-0.8731470552	-0.245336
O	 0.0799059864	 0.2459414375	-0.1982007104	-0.291698
C	 1.4404073602	 0.1126074562	 0.2174094329	 0.454188
C	 1.7753506658	 0.6681019883	 1.6038733951	-0.290473
C	 3.1575757469	 0.1601798477	 2.0250441737	 0.085978
C	 4.1268538395	 0.0386157633	 0.828230179	-0.257295
C	 3.4218488204	-1.3282621414	 0.6824411409	 0.085978
C	 2.1114908389	-1.2251094545	-0.1038399165	-0.290474
O	 3.0868484609	-1.2920267916	 2.0987010603	-0.293214
H	 1.2571059587	 0.7495509416	-1.9090039549	 0.110064
H	 1.01682034	 2.1029054893	-0.6882503129	 0.110064
H	 1.7309117519	 1.7625698259	 1.6043654267	 0.098372
H	 1.0414666583	 0.3051242845	 2.3316283454	 0.125461
H	 3.5125990621	 0.6052445211	 2.9578048668	 0.080071
H	 4.0548842355	 0.7612943675	 0.0128851342	 0.102609
H	 5.161997476	-0.0711552705	 1.1536787349	 0.111803
H	 4.0123142856	-2.2092574317	 0.4190696949	 0.080071
H	 2.2792869243	-1.3259860383	-1.1815706082	 0.098372
H	 1.4591616985	-2.0474210322	 0.2095867933	 0.125461
92.3473	260.7052	334.9055	339.2663	385.6913	395.3689	443.0943	538.747	571.7374	725.852	839.0896	842.0803	849.7953	866.8348	877.5293	932.0536	938.6383	951.7828	958.1615	999.4261	1029.3174	1086.8058	1093.1059	1097.1121	1132.2029	1159.2914	1167.14	1215.0295	1225.2464	1253.043	1263.7278	1307.3288	1317.0864	1338.761	1358.0939	1369.0398	1420.8697	1467.1506	1477.6822	1490.8837	1529.1422	3040.3222	3042.0485	3071.2586	3073.2782	3079.5152	3084.9818	3085.8394	3088.3525	3140.2702	3156.5703
C1OC11CC2CC(C1)O2	C1O[C@@]21C[C@@H]1C[C@H](C2)O1	
InChI=1S/C7H10O2/c1-5-2-7(4-8-7)3-6(1)9-5/h5-6H,1-4H2	InChI=1S/C7H10O2/c1-5-2-7(4-8-7)3-6(1)9-5/h5-6H,1-4H2/t5-,6+,7-
