19
gdb 211	2.8806125	1.8867308	1.5636233	1.7323	72.6	-0.25207	0.0815	0.33357000000000003	919.4401	0.16098	-422.562432	-422.555722	-422.554778	-422.593268	27.562	
C	 2.939000622	 2.9435611631	-0.7478766601	-0.298884
C	 1.4459258069	 3.1317686682	-0.6088047219	-0.02844
C	 0.7617731849	 2.9321977099	 0.7475813933	-0.243095
C	 0.6391910906	 1.4405336647	 1.0793283039	 0.057432
C	-0.3206585372	 0.6732883488	 0.131273662	-0.096041
O	 0.538674777	 0.0587765566	-0.8291145561	-0.263016
C	 1.830664233	 0.5935514571	-0.5857621898	 0.173931
O	 1.8930328382	 0.7958649946	 0.8114365991	-0.255584
C	 2.0036757424	 1.9122125394	-1.3180051771	-0.04956
H	 3.4730909491	 3.5879631881	-1.4376932224	 0.107857
H	 3.4904975016	 2.6697126525	 0.1448898287	 0.123929
H	 1.0074222532	 3.8971143001	-1.2403609362	 0.086654
H	 1.3238322201	 3.4369173986	 1.5416350683	 0.107055
H	-0.2380751703	 3.3809575444	 0.7353195311	 0.100045
H	 0.4007800033	 1.2785212512	 2.1326038923	 0.085234
H	-0.8754022665	-0.1120918583	 0.6551681581	 0.10911
H	-1.036232642	 1.3445006675	-0.3585642259	 0.100403
H	 2.5740631047	-0.1579013258	-0.8661470769	 0.091098
H	 1.8934046789	 1.8441475294	-2.3951576804	 0.091875
138.6745	226.0903	296.4071	388.7677	423.9251	470.9494	548.2953	670.8974	754.0136	778.7363	807.5791	825.7384	854.0645	877.8244	895.5821	920.2405	979.8241	992.2713	1017.6579	1047.2522	1056.0056	1072.8784	1080.9488	1102.793	1129.0804	1131.746	1148.9573	1211.958	1217.1419	1231.8904	1300.66	1318.6879	1334.2129	1357.4239	1367.1566	1375.3857	1399.257	1407.6887	1479.9053	1490.8793	1526.5296	3026.3302	3033.5107	3067.4944	3071.9409	3079.8719	3094.7095	3132.7137	3155.5151	3167.961	3222.7649
C1C2CC3COC(O3)C12	C1[C@@H]2C[C@H]3CO[C@H](O3)[C@H]12	
InChI=1S/C7H10O2/c1-4-2-6(4)7-8-3-5(1)9-7/h4-7H,1-3H2	InChI=1S/C7H10O2/c1-4-2-6(4)7-8-3-5(1)9-7/h4-7H,1-3H2/t4-,5-,6+,7+/m0/s1
