19
gdb 54	3.0832131	0.9689087	0.7813119	1.2331	78.75	-0.20946	0.02381	0.23327	1456.0713	0.156291	-422.587969	-422.578429	-422.577484	-422.623344	33.782	
C	-2.5058166921	-2.4146355862	-1.3692277043	-0.493434
C	-2.8508275866	-1.0152668666	-1.0022500732	 0.270266
C	-2.1472769246	 0.1548995548	-0.9713050253	 0.150266
C	-0.7007602808	 0.3683110008	-1.3031385438	-0.312607
C	 0.1683957786	 0.5672480089	-0.059525537	-0.05845
O	 1.5004422865	 0.788370014	-0.495752028	-0.418671
C	-3.0797584131	 1.1591754061	-0.5251175917	-0.267793
C	-4.260940256	 0.5266889349	-0.3257198624	-0.020158
O	-4.1423886479	-0.7974397172	-0.6110071756	-0.180388
H	-2.6194189141	-3.0952976777	-0.5173768114	 0.136529
H	-3.1513667563	-2.7873652774	-2.1725957911	 0.137916
H	-1.4701665355	-2.4715599333	-1.7107511044	 0.136543
H	-0.3015551049	-0.4811519778	-1.8668749175	 0.108488
H	-0.5808202953	 1.249999891	-1.943818391	 0.114186
H	-0.2111885254	 1.4209444914	 0.5241511799	 0.088316
H	 0.0954109274	-0.324031803	 0.5835668048	 0.087391
H	 2.0548968248	 0.9123247372	 0.2798917958	 0.28581
H	-2.8814579019	 2.21116683	-0.3862367019	 0.106053
H	-5.2366789927	 0.8512305301	-0.003834712	 0.129737
43.1268	90.6877	113.5348	126.4663	230.1718	255.8838	266.2196	347.6689	355.3207	420.233	620.8267	648.2632	680.4291	741.5827	773.0802	796.5715	824.1651	912.2697	961.1532	1005.6696	1028.5568	1062.8692	1072.9927	1078.0181	1158.4352	1180.6098	1220.7842	1237.7132	1250.2964	1275.5962	1312.6459	1341.7968	1410.3109	1439.9584	1453.7265	1473.4177	1485.9386	1494.2705	1525.9427	1552.5099	1664.6393	2969.0981	2997.119	3029.4192	3038.0666	3078.0156	3083.5968	3131.0423	3245.8619	3282.1182	3831.7529
CC1=C(CCO)C=CO1	Cc1c(CCO)cco1	
InChI=1S/C7H10O2/c1-6-7(2-4-8)3-5-9-6/h3,5,8H,2,4H2,1H3	InChI=1S/C7H10O2/c1-6-7(2-4-8)3-5-9-6/h3,5,8H,2,4H2,1H3
