19
gdb 275	3.3822379	1.4273053	1.2751388	2.0645	74.91	-0.2469	0.08643	0.33333	1053.7121	0.157832	-422.531386	-422.523822	-422.522878	-422.563434	29.578	
C	 1.1693299609	 1.5594148647	-0.2532532109	-0.217146
C	-0.3334728431	 1.4895829333	 0.1372765381	-0.277029
C	-0.2420994116	-0.0522235135	 0.0745267299	 0.44329
C	 1.3104747249	 0.066587072	 0.1536877753	-0.290396
O	-0.921706683	-0.7249834687	 1.1255946324	-0.313301
C	-1.3915219709	-2.0009459356	 0.6999942997	-0.126439
C	-1.4499551046	-1.9268042928	-0.8087166284	 0.024887
O	-2.1598962572	-0.776103465	-1.2797222799	-0.256534
C	-0.731170462	-0.7129564493	-1.1961795895	-0.048257
H	 1.3119732345	 1.7108441532	-1.3266689084	 0.103445
H	 1.7899275212	 2.2804339364	 0.2812808884	 0.104467
H	-0.5021782749	 1.8055900848	 1.16959578	 0.115674
H	-1.0705188384	 1.9708903741	-0.5089194519	 0.109728
H	 1.6329442665	-0.0468566944	 1.1915571933	 0.113303
H	 1.9110749251	-0.5916063562	-0.4810549613	 0.092262
H	-0.7083431394	-2.8089968302	 1.0064065086	 0.09663
H	-2.3677601184	-2.1752785975	 1.1649067275	 0.11889
H	-1.513376906	-2.8229780082	-1.4196311443	 0.102984
H	-0.1960868435	-0.5927540469	-2.1342461986	 0.103542
103.1812	131.9201	196.5139	323.1663	334.381	389.3546	462.7756	521.3944	677.2595	738.1621	786.5189	808.8786	844.3919	853.2987	890.2632	907.3417	927.1543	952.8914	955.3065	998.6954	1029.4745	1046.5506	1067.9966	1094.3869	1119.6674	1153.4714	1193.0545	1200.1766	1225.1694	1244.4478	1255.5855	1269.4176	1271.7181	1288.665	1340.4862	1379.2131	1441.3892	1470.2155	1485.5204	1506.0083	1509.1748	2982.9263	3053.4849	3065.4066	3068.7369	3070.623	3107.4675	3119.5442	3131.457	3149.5729	3162.8349
C1CC2(C1)OCC1OC21	C1CC2(C1)OC[C@H]1O[C@@H]21	
InChI=1S/C7H10O2/c1-2-7(3-1)6-5(9-6)4-8-7/h5-6H,1-4H2	InChI=1S/C7H10O2/c1-2-7(3-1)6-5(9-6)4-8-7/h5-6H,1-4H2/t5-,6-/m1/s1
