19
gdb 13	4.2277609	0.9406156	0.8454208	1.1432	77.97	-0.20521	0.02535	0.23056000000000001	1407.8474	0.156174	-422.5711	-422.562123	-422.561179	-422.605088	33.258	
C	-3.3498728307	 1.3226588059	 2.0368218918	-0.392774
C	-1.8856836096	 0.9068072341	 1.9880775752	 0.137432
C	-1.1951901771	 1.0217321076	 3.3471076017	-0.395552
O	-1.2595605538	 1.7681583852	 1.0237708405	-0.282469
C	-0.1027744346	 1.3448233565	 0.4700330712	 0.3197
C	 0.6089192029	 0.1900701133	 0.6395748354	-0.15324
O	 1.7142833193	 0.2111217929	-0.1705165533	-0.150829
C	 1.6922755095	 1.3833825198	-0.8455617614	 0.020882
C	 0.6098662414	 2.1253355636	-0.5006459872	-0.305115
H	-3.9018199041	 0.6955337981	 2.7429221882	 0.116516
H	-3.4370437603	 2.3650895451	 2.3587163567	 0.127051
H	-3.8104188352	 1.2274310745	 1.0502438353	 0.125919
H	-1.815061996	-0.1268790021	 1.6193024697	 0.082639
H	-1.6508521665	 0.3318489833	 4.0643883558	 0.116361
H	-0.131054359	 0.7853954967	 3.2727890245	 0.129499
H	-1.2948062278	 2.0400927041	 3.735554727	 0.125289
H	 0.4928089268	-0.6852903527	 1.2522667492	 0.129182
H	 2.5074846861	 1.5453075718	-1.5315787851	 0.134898
H	 0.3282768887	 3.0969113323	-0.8729104653	 0.114609
67.7971	88.7279	153.5309	209.0574	249.0252	307.2102	318.0467	388.4854	448.8365	486.5842	607.7433	648.7213	692.3641	713.3374	765.4848	821.6993	842.6507	883.2817	933.8977	943.9188	955.2604	1014.101	1064.5549	1089.7231	1149.7696	1157.0759	1200.7021	1218.3371	1266.9658	1315.6488	1372.3205	1380.4337	1401.0834	1413.8281	1424.2149	1480.1533	1487.8651	1493.871	1511.716	1545.2711	1641.3198	2999.4038	3041.4038	3045.717	3111.6232	3119.8406	3125.1539	3126.8248	3261.9353	3284.1596	3297.5418
CC(C)OC1=COC=C1	CC(C)Oc1cocc1	
InChI=1S/C7H10O2/c1-6(2)9-7-3-4-8-5-7/h3-6H,1-2H3	InChI=1S/C7H10O2/c1-6(2)9-7-3-4-8-5-7/h3-6H,1-2H3
