19
gdb 118	2.7505883	1.7799816	1.4810338	1.6332	73.65	-0.22772	0.07245	0.30017	961.3758	0.158736	-422.510415	-422.503186	-422.502242	-422.54162	29.431	
C	-0.8442337489	-1.152563013	-1.6036199232	-0.381277
C	-1.6555864359	 0.0198782027	-1.1189426689	 0.376346
C	-1.5064643611	 1.4624381971	-1.5055637525	-0.307667
C	-0.0571901099	 1.9005488513	-1.1701819238	-0.222668
C	 0.4002290887	 1.3787664705	 0.2004458799	-0.080859
O	 0.4806499137	-0.0551158776	 0.2515363338	-0.296147
C	-0.6916233277	-0.6405268227	-0.1847313174	 0.297625
C	-1.9155842696	-1.0071066602	 0.6509283403	-0.154492
O	-2.7959298475	-0.4500540466	-0.3737743147	-0.333882
H	-1.3458330536	-2.0938653612	-1.8077248943	 0.112638
H	 0.002164055	-0.9212877872	-2.2413379028	 0.121216
H	-1.746530968	 1.6648670174	-2.5549323024	 0.106517
H	-2.2106185481	 2.0367802064	-0.8927476307	 0.117659
H	 0.6402400477	 1.5353789095	-1.9335812004	 0.112893
H	 0.0108701516	 2.9934625772	-1.1753768242	 0.106864
H	 1.4075556977	 1.7326106388	 0.4337986597	 0.112924
H	-0.2795101236	 1.7451311301	 0.9860364457	 0.096512
H	-2.1173218566	-2.0666511705	 0.8449462209	 0.106567
H	-1.9914745037	-0.4357634621	 1.5836150149	 0.109229
139.9742	218.0897	298.3043	361.5771	377.0344	404.3712	476.9911	489.0967	554.5438	627.9866	728.3478	770.0081	854.0295	870.2109	895.093	903.6364	936.7029	958.0135	977.8504	982.8099	1039.5102	1051.4716	1058.4277	1097.2955	1139.0524	1152.3446	1196.5616	1231.3166	1236.3886	1278.5505	1296.3045	1323.7768	1357.5432	1378.9142	1391.223	1418.7873	1479.5629	1480.4249	1495.246	1504.6856	1518.2536	2983.3609	3023.9373	3034.6131	3038.1186	3073.333	3076.46	3087.6095	3098.4984	3121.8612	3221.4019
C1C23CCCOC12CO3	C1[C@]23CCCO[C@]12CO3	
InChI=1S/C7H10O2/c1-2-6-4-7(6,5-9-6)8-3-1/h1-5H2	InChI=1S/C7H10O2/c1-2-6-4-7(6,5-9-6)8-3-1/h1-5H2/t6-,7+/m1/s1
