19
gdb 133	2.5709058	1.9451189	1.9022464	1.1184	72.74	-0.24291	0.08193	0.32484	874.2365	0.160936	-422.545228	-422.538663	-422.537719	-422.575668	27.61	
C	 1.1314494672	 0.5286607732	 3.2787930148	-0.320736
C	 0.9356062467	-0.782019116	 2.5728510701	-0.014897
C	 0.8719627089	 0.5121885034	 1.788227966	-0.044146
C	-0.5294466072	 0.650602014	 1.2065894761	 0.07148
C	-1.599580872	 0.6289535853	 2.2951102946	-0.09679
O	-1.4318512862	-0.5469042281	 3.1011506127	-0.278321
C	-0.4491496434	-1.4249232145	 2.5516036198	 0.048299
C	-0.8058475757	-1.6992708497	 1.0810678337	-0.069312
O	-0.767129831	-0.4735249629	 0.3396650442	-0.283045
H	 0.365277854	 0.8668721186	 3.9646904691	 0.131302
H	 2.1437637575	 0.7740742179	 3.5803489217	 0.110829
H	 1.7786385952	-1.4540125577	 2.4476115874	 0.087342
H	 1.6867480734	 0.7767435824	 1.123398991	 0.090349
H	-0.6405034365	 1.5356821997	 0.5759635145	 0.079412
H	-1.5369012454	 1.5118487031	 2.9428357997	 0.102957
H	-2.5918059358	 0.6131324538	 1.8257756173	 0.10537
H	-0.4980958833	-2.342488014	 3.1431437909	 0.081607
H	-0.0959338125	-2.4089436468	 0.6354187632	 0.097191
H	-1.8138751538	-2.1299634916	 1.0160226633	 0.101108
202.618	301.5402	316.6509	347.6493	412.6697	503.2952	564.4707	589.7701	687.6398	747.2674	819.2159	837.811	869.5097	880.8179	886.2419	922.2489	964.119	986.2159	1030.7509	1038.7734	1064.0854	1072.068	1085.1387	1102.6623	1114.8003	1123.2567	1160.8233	1202.5612	1234.027	1240.6389	1300.8207	1326.6877	1331.0225	1342.5341	1362.8395	1389.2001	1403.8114	1411.1989	1489.224	1513.4883	1520.9406	3003.4737	3013.2725	3041.2647	3052.3945	3081.7851	3087.3689	3146.3965	3156.8942	3170.1006	3235.5699
C1C2C1C1COC2CO1	C1[C@@H]2[C@H]1[C@@H]1CO[C@H]2CO1	
InChI=1S/C7H10O2/c1-4-5(1)7-3-9-6(4)2-8-7/h4-7H,1-3H2	InChI=1S/C7H10O2/c1-4-5(1)7-3-9-6(4)2-8-7/h4-7H,1-3H2/t4-,5+,6-,7-/m0/s1
