19
gdb 158	4.6514324	0.9548195	0.8588138	2.0895	74.52	-0.2478	0.07565	0.32345	1336.0803	0.157078	-422.486221	-422.478085	-422.477141	-422.520386	29.663	
C	-1.1154803258	-3.3195454949	-0.7196567944	-0.085285
O	-2.1235673685	-3.5885361393	 0.2747357383	-0.27013
C	-1.5805520746	-2.5964891987	 1.1675469218	-0.090662
C	-0.4484057841	-2.2441943282	 0.1718218667	-0.042709
C	-0.4140529861	-0.8270679953	-0.3651309056	-0.025192
C	 0.7349539983	-0.5504770262	-1.4088083921	-0.283617
C	 1.3356390649	 0.4516035454	-0.4143638382	 0.038628
O	 0.333269631	 1.4401011303	-0.1521898621	-0.246758
C	 0.2628284332	 0.204039943	 0.5625238184	 0.014327
H	-0.5099768455	-4.2070731971	-0.9408144339	 0.09973
H	-1.5500656847	-2.9444570258	-1.6558771046	 0.100672
H	-2.2961113102	-1.7871909497	 1.3675987825	 0.100745
H	-1.2644081204	-3.0333352361	 2.1229380479	 0.10034
H	 0.5432746905	-2.5372290757	 0.5303110949	 0.075992
H	-1.4125977032	-0.5174085513	-0.691208128	 0.086265
H	 1.3648842431	-1.4296681698	-1.5706323637	 0.106604
H	 0.4414971079	-0.1281558168	-2.3724181605	 0.113421
H	 2.3689124426	 0.7483935773	-0.2768396314	 0.104409
H	 0.2568375415	 0.2553251592	 1.646052934	 0.10322
37.3295	73.8093	134.6623	160.9769	311.8819	377.9368	425.6198	480.3971	745.1769	778.8374	838.2336	847.6617	861.7402	889.4083	917.7525	926.2733	954.3535	982.6503	991.4015	1013.5836	1043.6499	1048.2404	1072.239	1095.8706	1137.4776	1156.5711	1164.6484	1209.7827	1222.4729	1234.6897	1242.6335	1263.9204	1276.3449	1287.2545	1311.8471	1375.5466	1387.2984	1408.4309	1470.1088	1513.5215	1538.3629	2999.2851	3010.4753	3040.0943	3047.0167	3050.3664	3062.1137	3068.5366	3119.9809	3171.8697	3190.4173
C1OCC1C1CC2OC12	C1OCC1[C@@H]1C[C@H]2O[C@@H]12	
InChI=1S/C7H10O2/c1-5(4-2-8-3-4)7-6(1)9-7/h4-7H,1-3H2	InChI=1S/C7H10O2/c1-5(4-2-8-3-4)7-6(1)9-7/h4-7H,1-3H2/t5-,6+,7-/m0/s1
