19
gdb 281	2.7696291	1.678047	1.2336143	1.5021	73.58	-0.24508	0.07623	0.32131	1030.8995	0.158856	-422.512275	-422.504821	-422.503877	-422.543994	29.639	
C	-1.9235497557	-1.5993260773	 0.9600101844	-0.310926
C	-1.305473092	-0.3097035195	 1.4622525326	-0.043982
C	 0.1935170565	-0.0452532762	 1.491597917	-0.274532
C	 0.9853683041	-0.5843193226	 0.3103894189	 0.047186
O	 1.7525980365	 0.3674451594	-0.4434110651	-0.259174
C	 0.6187175706	-0.2365209657	-1.0672487943	 0.050719
C	-0.6098018301	 0.6222298918	-1.3024908783	-0.121018
O	-1.7811821583	-0.1467794064	-1.085337165	-0.252788
C	-2.2035476801	-0.3041972371	 0.2416017314	 0.107752
H	-1.2690465065	-2.283251446	 0.4299384382	 0.11983
H	-2.7079729766	-2.0787433117	 1.5354681655	 0.11033
H	-1.7973058298	 0.1123262093	 2.3360461963	 0.092313
H	 0.3710566451	 1.0346014951	 1.5428403765	 0.122514
H	 0.6010331279	-0.4660864867	 2.4185615299	 0.107396
H	 1.5046224588	-1.5287299183	 0.4693628833	 0.097387
H	 0.8591195026	-0.9410981085	-1.8638515684	 0.094657
H	-0.5739386195	 1.5073880225	-0.6562709539	 0.108378
H	-0.656972257	 0.9608128382	-2.3422498511	 0.109628
H	-3.1865181564	 0.1392303995	 0.3897969321	 0.094328
102.8883	207.5466	261.7361	303.7073	360.3867	395.8732	432.2212	466.9831	619.0341	649.3204	746.0918	774.5581	816.3131	827.2932	855.8058	936.9745	962.8871	977.9074	1028.8195	1031.5234	1050.1532	1075.5308	1093.3379	1119.005	1143.5942	1147.9485	1165.9358	1193.9571	1248.642	1262.9271	1281.205	1295.164	1347.064	1367.5327	1393.5833	1399.7847	1421.1109	1479.2212	1484.4468	1491.8556	1504.0521	3030.1092	3034.0485	3069.001	3084.6765	3106.7398	3112.7093	3119.6235	3128.2627	3133.1629	3220.4549
C1C2CC3OC3COC12	C1[C@H]2C[C@@H]3O[C@@H]3CO[C@@H]12	
InChI=1S/C7H10O2/c1-4-2-6-7(9-6)3-8-5(1)4/h4-7H,1-3H2	InChI=1S/C7H10O2/c1-4-2-6-7(9-6)3-8-5(1)4/h4-7H,1-3H2/t4-,5-,6-,7+/m0/s1
