19
gdb 135	2.4735182	1.9407354	1.9242775	0.9828	72.02	-0.24319	0.08362	0.32681	876.3334	0.160915	-422.553161	-422.546525	-422.54558	-422.58374	27.578	
C	 3.0235239111	 0.5119717	-1.0983843706	-0.204048
C	 2.1147581769	-0.5029987564	-1.8518735723	-0.209371
C	 1.1519662836	-1.1378902417	-0.8426858143	 0.065555
O	 1.9005248168	-1.8145489017	 0.1831807131	-0.282276
C	 2.7640232967	-0.9384063503	 0.915616134	-0.06023
C	 2.6440158327	 0.5089291052	 0.3948008807	-0.092106
C	 1.1710555226	 0.8810689356	 0.5565390117	 0.049796
O	 0.4602343882	 1.284179126	-0.6183848572	-0.251366
C	 0.3058296474	-0.0656940843	-0.1567652168	 0.031539
H	 4.0786330878	 0.2366917332	-1.19361736	 0.093691
H	 2.9057586679	 1.5157785819	-1.5104747704	 0.113534
H	 1.5493906048	-0.0090244158	-2.6455835613	 0.112983
H	 2.7049708286	-1.3036729553	-2.3060220621	 0.100106
H	 0.5390144473	-1.9174622849	-1.3001079579	 0.075736
H	 2.498905597	-0.99666094	 1.980622992	 0.095149
H	 3.7982465469	-1.2936314964	 0.8090672357	 0.097178
H	 3.2984118775	 1.1674316379	 0.9728213882	 0.069358
H	 0.8469385383	 1.3605210586	 1.4774505469	 0.096487
H	-0.6873194621	-0.3220753618	 0.2023131906	 0.098285
177.6128	288.1928	304.2072	348.0508	386.5667	524.8196	554.9176	588.3932	680.3846	790.5677	803.3658	821.5549	866.0452	880.4414	886.9961	934.6383	952.8094	990.2853	1009.3532	1027.3988	1031.2727	1066.4881	1097.078	1108.9472	1136.7397	1189.462	1221.2687	1246.8364	1264.7459	1278.5921	1307.9257	1331.5487	1343.1967	1347.5829	1372.1634	1376.6567	1405.1471	1445.2264	1471.3571	1496.8497	1526.7689	2995.4517	3027.4348	3049.0391	3061.8927	3070.4681	3088.7614	3099.8406	3118.7186	3134.9693	3151.1723
C1CC2OCC1C1OC21	C1C[C@H]2OC[C@@H]1[C@H]1O[C@@H]21	
InChI=1S/C7H10O2/c1-2-5-7-6(9-7)4(1)3-8-5/h4-7H,1-3H2	InChI=1S/C7H10O2/c1-2-5-7-6(9-7)4(1)3-8-5/h4-7H,1-3H2/t4-,5-,6-,7+/m1/s1
