19
gdb 258	3.3922104	1.7134891	1.46643	1.0555	73.6	-0.24631	0.08821	0.33452	942.7925	0.160141	-422.538251	-422.531397	-422.530453	-422.569647	27.723	
C	-1.605735909	 1.102830096	-1.8720831658	-0.299517
C	-0.6103917899	 1.4143518726	-3.0142177422	-0.085872
C	-1.0182919276	 0.3252470736	-4.0551925685	-0.213746
C	-1.1886193716	-0.9405330049	-3.1187982067	-0.30638
C	-0.7780779672	-0.2376881726	-1.8373098966	 0.44808
O	-0.4635989644	-0.8617242317	-0.6320509162	-0.33073
C	 0.4829352019	 0.0134016269	-0.0136086707	-0.001396
O	 0.9059279146	 1.0042210731	-0.9580036486	-0.299156
C	 0.448456679	 0.5909305401	-2.2326431549	 0.106494
H	-1.4529851793	 1.7126234642	-0.9835250787	 0.113961
H	-2.6672201069	 1.04107764	-2.1235147848	 0.088479
H	-0.4341353488	 2.4197754068	-3.392925618	 0.070877
H	-1.9460164513	 0.5931593777	-4.5665801711	 0.106504
H	-0.247969537	 0.1649934352	-4.8148810094	 0.104682
H	-2.2112630908	-1.3245477684	-3.1040872097	 0.10704
H	-0.5127951689	-1.7567818658	-3.3860269934	 0.107517
H	 0.0284552809	 0.5366156289	 0.8381155753	 0.109373
H	 1.3324825772	-0.5936011949	 0.3267237643	 0.109691
H	 1.2573401192	 0.1281090332	-2.8121228145	 0.0641
61.7828	265.5324	294.4239	362.4882	436.6558	453.4691	547.6339	666.5798	700.4481	745.9329	819.7602	848.4244	864.4504	878.6737	916.7891	937.7353	949.5173	966.4773	1020.4944	1026.9088	1048.5079	1073.7736	1103.7097	1129.0436	1135.3124	1160.2111	1191.5064	1200.8999	1218.9119	1238.1114	1242.1943	1267.4083	1293.9701	1305.6656	1334.9195	1374.2822	1433.3841	1487.6284	1493.8701	1520.6395	1545.3403	3002.7391	3022.0604	3043.6379	3057.372	3066.9388	3074.3639	3099.6793	3118.0376	3129.7562	3157.1466
C1C2CCC11OCOC21	C1[C@@H]2CC[C@@]31OCO[C@H]23	
InChI=1S/C7H10O2/c1-2-7-3-5(1)6(7)8-4-9-7/h5-6H,1-4H2	InChI=1S/C7H10O2/c1-2-7-3-5(1)6(7)8-4-9-7/h5-6H,1-4H2/t5-,6+,7-/m0/s1
