19
gdb 85	3.9685358	0.9758663	0.8298006	0.5669	77.8	-0.23782	0.05476	0.29258	1378.337	0.156672	-422.5183	-422.509534	-422.50859	-422.552031	32.763	
C	-0.0164124232	 0.0794805934	 0.3011800949	-0.437088
C	 1.1788258011	-0.00648288	 0.2165864688	 0.310135
C	 2.6283906008	-0.0965488957	 0.0989748218	-0.383331
C	 3.0913046987	-1.0228437247	-1.0317430509	 0.117463
C	 4.6068473733	-0.9640849573	-1.2408291125	-0.093794
O	 5.0191061063	-1.9036820326	-2.2180560096	-0.253143
C	 4.6244653446	-3.2207993658	-1.8648065186	-0.079462
C	 3.1150118839	-3.2860990863	-1.6660185727	-0.078583
O	 2.7069108812	-2.3457172319	-0.6843090236	-0.259126
H	-1.0726813156	 0.148438118	 0.3818997501	 0.194343
H	 3.0471259202	 0.9035171784	-0.0725277188	 0.130446
H	 3.0573013989	-0.4638464825	 1.039503024	 0.139231
H	 2.597762597	-0.7328507721	-1.9737862416	 0.083119
H	 4.9137321478	 0.0210194071	-1.6054530317	 0.109939
H	 5.1137068674	-1.1596602624	-0.2800722843	 0.089351
H	 4.9448867102	-3.8761794314	-2.6802707051	 0.109379
H	 5.1316764594	-3.5346968243	-0.9376237478	 0.093771
H	 2.6073765367	-3.0832379412	-2.6228010226	 0.097537
H	 2.8056981012	-4.2722692887	-1.3068452897	 0.109813
62.208	96.1291	168.4672	257.4322	284.032	340.5262	353.4238	388.4815	456.2305	483.5161	537.2501	615.5789	633.0279	645.9516	821.5368	874.61	892.5813	939.7408	949.4916	1009.0956	1073.5798	1084.5545	1104.2792	1135.1075	1140.8468	1148.2345	1236.1834	1252.2951	1286.8758	1304.7939	1327.1591	1359.4365	1383.7504	1392.5816	1415.149	1424.8959	1456.7168	1479.0755	1486.7937	1493.0369	2244.0899	2959.306	2973.6173	2978.0644	2985.9261	3024.4687	3062.2242	3084.2742	3087.8775	3088.2201	3507.318
C#CCC1COCCO1	C#CC[C@H]1COCCO1	
InChI=1S/C7H10O2/c1-2-3-7-6-8-4-5-9-7/h1,7H,3-6H2	InChI=1S/C7H10O2/c1-2-3-7-6-8-4-5-9-7/h1,7H,3-6H2/t7-/m0/s1
