19
gdb 55	3.2142188	1.0513349	0.8041803	1.5364	80.39	-0.19085	0.0254	0.21625	1436.4501	0.155655	-422.572541	-422.562987	-422.562043	-422.607957	33.675	
C	 0.1514687954	-0.75885663	 0.1114567284	-0.390801
C	 0.4857885736	 0.7218541272	 0.0948510243	-0.049077
O	 1.8893009868	 0.8500111861	-0.0898383332	-0.277976
C	 2.3846005516	 2.1142678331	-0.1329928292	 0.236237
C	 3.7101993499	 2.3964240677	-0.3058469147	 0.248576
C	 4.9068868462	 1.5384186952	-0.4832167025	-0.498203
O	 3.8761123136	 3.7566748176	-0.3026315612	-0.177343
C	 2.6579936833	 4.3207778502	-0.1286566579	-0.01018
C	 1.694144451	 3.3689756067	-0.0166459988	-0.313349
H	-0.9240096842	-0.9011981255	 0.2521323576	 0.118158
H	 0.4443680378	-1.229773308	-0.8310185214	 0.130487
H	 0.6785972934	-1.2629725862	 0.9262052739	 0.130484
H	-0.0473052759	 1.233350738	-0.7200355008	 0.101874
H	 0.1872087296	 1.200101061	 1.0393112474	 0.101856
H	 5.6490733944	 1.7010075523	 0.3075497353	 0.131749
H	 4.5984197772	 0.4909094992	-0.4521781954	 0.143521
H	 5.4046858854	 1.720647121	-1.4433110788	 0.131676
H	 2.6349442748	 5.3976848383	-0.105404357	 0.130532
H	 0.6399324261	 3.5374938261	 0.1283230538	 0.11178
40.2389	84.0942	112.7838	135.9845	217.6788	244.5589	269.9909	328.4378	348.6036	491.0561	613.4763	637.4191	677.2953	722.7826	755.027	795.3891	828.6558	906.9923	922.3957	965.9129	1061.3178	1064.4722	1099.3482	1124.4963	1178.1788	1186.0034	1194.5124	1251.329	1296.5707	1314.0926	1400.1376	1407.5694	1424.2934	1463.1545	1475.5339	1483.4169	1490.4125	1500.7035	1529.064	1542.4085	1685.5008	2986.5652	3020.7145	3021.5619	3046.9106	3067.5757	3122.0205	3124.6973	3128.9766	3261.599	3284.9385
CCOC1=C(C)OC=C1	CCOc1c(C)occ1	
InChI=1S/C7H10O2/c1-3-8-7-4-5-9-6(7)2/h4-5H,3H2,1-2H3	InChI=1S/C7H10O2/c1-3-8-7-4-5-9-6(7)2/h4-5H,3H2,1-2H3
