19
gdb 106	5.6531271	0.8185496	0.7951618	0.8691	76.56	-0.22402	0.07646	0.30047999999999997	1483.8245	0.155912	-422.467665	-422.459352	-422.458408	-422.50142	31.076	
C	-1.8504169561	 2.2939879751	 2.4765866447	-0.285138
C	-1.458747317	 1.4282551265	 3.6594833923	-0.290107
C	-1.2013126374	 0.9503776131	 2.2698056679	 0.145029
O	 0.1433970384	 0.9030594721	 1.8776213309	-0.263349
C	 0.312998878	 0.9983972218	 0.4966180406	 0.076473
C	 1.6143449597	 0.3918633411	 0.0338456717	-0.17089
C	 1.7241753169	 0.5500030691	-1.4758880754	-0.090953
O	 0.4043980404	-0.0368077318	-1.6742704374	-0.286232
C	 0.2977708593	-0.2940468163	-0.2734329825	 0.060719
H	-2.90079889	 2.4085335299	 2.233058701	 0.11557
H	-1.238608219	 3.1686247317	 2.2861236674	 0.121702
H	-0.5902387042	 1.737495077	 4.2294990999	 0.127267
H	-2.2361223241	 0.9431265528	 4.2385304966	 0.115736
H	-1.8104886265	 0.1417661788	 1.8687510535	 0.089826
H	-0.0863068409	 1.9019158917	 0.0307105038	 0.092487
H	 2.4005035246	 0.1341059091	 0.7295285359	 0.111618
H	 1.7913721678	 1.5661446432	-1.8823385962	 0.107622
H	 2.4956592984	-0.0827952745	-1.9291043096	 0.112656
H	-0.1471402583	-1.2234227203	 0.0627921049	 0.109965
59.1907	76.3826	126.3417	247.5661	315.0384	340.2003	346.477	461.9035	560.0919	750.2609	758.8921	803.372	819.2381	835.2042	916.6535	932.0872	948.9542	975.5302	982.1987	991.8055	1008.3928	1044.7319	1051.912	1072.9605	1097.5937	1103.0193	1124.0997	1151.5025	1158.1803	1193.2641	1195.1053	1204.2611	1234.8122	1243.0991	1278.1988	1337.2861	1388.2976	1428.699	1453.1343	1497.2367	1515.4899	3022.9744	3071.5158	3078.3009	3113.7272	3137.1824	3143.5353	3181.796	3216.1856	3221.593	3236.0427
C1CC1OC1C2COC12	C1CC1O[C@H]1[C@@H]2CO[C@H]12	
InChI=1S/C7H10O2/c1-2-4(1)9-7-5-3-8-6(5)7/h4-7H,1-3H2	InChI=1S/C7H10O2/c1-2-4(1)9-7-5-3-8-6(5)7/h4-7H,1-3H2/t5-,6+,7+/m1/s1
