19
gdb 58	5.5219106	0.7418674	0.690205	1.9819	79.62	-0.19799	0.02555	0.22354	1659.5829	0.15627	-422.583134	-422.573693	-422.572749	-422.618105	34.036	
C	 1.5356027653	-0.9260908968	 0.9730605959	-0.382339
C	 1.1070020602	-0.0377262695	-0.1965382332	-0.157378
C	 1.6492602043	 1.4002714479	-0.078000839	-0.300853
C	 1.2640433041	 2.2793549308	-1.2168956319	 0.409294
C	 0.4702238425	 3.3831901584	-1.3163870973	-0.439409
C	 0.4846916295	 3.7643970188	-2.6994940003	 0.310184
O	-0.1570611068	 4.809024936	-3.2901784154	-0.440996
C	 1.2816386017	 2.8693979666	-3.3421282256	-0.123257
O	 1.7621799276	 1.9574542418	-2.4384172546	-0.187479
H	 1.1390720134	-1.9403967941	 0.8666631205	 0.114446
H	 2.6270579121	-1.0001785961	 1.0358703551	 0.115929
H	 1.17670026	-0.5268666005	 1.9285345184	 0.112977
H	 1.4546922641	-0.468188851	-1.1420871006	 0.114567
H	 0.0127810696	-0.0003335661	-0.2587058778	 0.100779
H	 1.2833862865	 1.8604314671	 0.8465609668	 0.108006
H	 2.7442824761	 1.3627589473	 0.0025510488	 0.114411
H	-0.0577828826	 3.8683285483	-0.5087919536	 0.100439
H	-0.6550632838	 5.2827593203	-2.6183893654	 0.299965
H	 1.5907623062	 2.7501436406	-4.3651295908	 0.130713
47.7288	86.0894	101.5351	199.5708	242.7197	260.2045	294.4023	313.6767	387.9313	450.2668	616.9418	635.4114	690.0143	698.4369	745.4744	761.5339	777.9946	869.0352	893.8768	961.2731	1007.2628	1042.7646	1086.6597	1109.9358	1154.196	1173.3558	1180.8231	1249.4559	1292.6553	1307.6752	1319.727	1343.5295	1382.441	1412.7274	1447.9173	1472.9129	1493.2382	1499.1566	1509.994	1590.0763	1691.1249	3014.0635	3028.8081	3037.0847	3061.0921	3079.0398	3099.8214	3104.0273	3239.8158	3296.5141	3849.0177
CCCC1=CC(O)=CO1	CCCc1cc(O)co1	
InChI=1S/C7H10O2/c1-2-3-7-4-6(8)5-9-7/h4-5,8H,2-3H2,1H3	InChI=1S/C7H10O2/c1-2-3-7-4-6(8)5-9-7/h4-5,8H,2-3H2,1H3
