19
gdb 334	2.4191509	1.9919799	1.3386576	1.1365	74.45	-0.22649	0.07142	0.29791	990.1398	0.158828	-422.51944	-422.512116	-422.511172	-422.550917	29.349	
C	-0.831126884	-1.1446400406	-0.7470585351	-0.388394
C	-0.3780784449	-0.9358128735	 0.6977000715	-0.112949
C	-1.3086561551	-0.3929852493	 1.7777850738	-0.233225
C	-0.939919685	 1.0629374056	 2.0835319354	-0.074442
O	-1.113432541	 1.9044669953	 0.9451737342	-0.26435
C	-0.421088522	 1.5153922682	-0.2128796026	 0.012953
C	 1.1108092842	 1.7379305548	-0.3547634288	-0.12634
O	 1.2838280887	 0.3653999007	-0.7970504147	-0.313799
C	-0.0407363364	 0.0530388861	-0.3772504597	 0.431416
H	-0.3192523854	-1.9227601696	-1.3033894588	 0.126664
H	-1.8808377596	-1.0206231852	-1.0004944483	 0.115406
H	 0.4294420626	-1.5827886893	 1.0262044128	 0.098139
H	-2.3551610111	-0.4297399618	 1.4535479043	 0.108214
H	-1.2353940171	-0.9897189535	 2.692697768	 0.104868
H	-1.5921605625	 1.4888827204	 2.8509941394	 0.10914
H	 0.0959222086	 1.1143031033	 2.4547233181	 0.093053
H	-0.9757760554	 1.9356508181	-1.0562379002	 0.097949
H	 1.4474704519	 2.4539126514	-1.109671473	 0.110376
H	 1.6209828236	 1.9309768888	 0.5971844136	 0.105319
132.1793	180.1333	249.6905	346.3842	396.249	414.1258	451.2127	483.2045	570.6942	653.4875	749.3093	793.0906	860.191	874.903	881.4123	934.7031	961.0841	977.8177	997.2084	1009.1138	1049.1352	1064.7187	1091.9088	1107.3497	1138.8425	1149.5904	1177.0603	1200.7614	1245.2747	1251.3996	1286.8376	1312.0455	1336.4504	1357.1287	1387.1383	1406.9772	1424.9881	1470.4614	1485.5113	1502.5251	1521.9804	2982.5641	3025.1885	3036.8139	3069.3204	3083.389	3089.3233	3095.5611	3116.4354	3157.7363	3209.5634
C1C2CCOC3COC123	C1[C@@H]2CCO[C@H]3CO[C@@]123	
InChI=1S/C7H10O2/c1-2-8-6-4-9-7(6)3-5(1)7/h5-6H,1-4H2	InChI=1S/C7H10O2/c1-2-8-6-4-9-7(6)3-5(1)7/h5-6H,1-4H2/t5-,6-,7-/m0/s1
