19
gdb 9	3.6403997	0.9393014	0.8768375	1.8808	79.16	-0.21648	0.01663	0.23311	1411.4237	0.155594	-422.591501	-422.581834	-422.58089	-422.626479	34.665	
C	-0.1083172922	 3.7574426	-3.3387736814	-0.393112
C	-0.6744407172	 4.1106270998	-1.9593121516	 0.008045
O	 0.1300935278	 5.1075085993	-1.3205613879	-0.427899
C	-0.8666405983	 2.9028806691	-1.0847749077	 0.271379
C	-1.9942723465	 2.5478461177	-0.4161146402	-0.132724
O	-1.7985958334	 1.4076956956	 0.3014777357	-0.181651
C	-0.5076891483	 1.0172651404	 0.0952213805	 0.383147
C	-0.0638883288	-0.2202126477	 0.7889487464	-0.488413
C	 0.1058113436	 1.8934752392	-0.7448541236	-0.40547
H	-0.7753083399	 3.0743056354	-3.8739824752	 0.118333
H	 0.0192465603	 4.6674668626	-3.9310317087	 0.121643
H	 0.8689378233	 3.2698778833	-3.2476489427	 0.10816
H	-1.6474487256	 4.5968913019	-2.0929852769	 0.087818
H	 0.9332760317	 4.6764414509	-1.0096844131	 0.277234
H	-2.978207416	 2.9829736174	-0.351041542	 0.134951
H	-0.1517245883	-0.1237736612	 1.8770398677	 0.140036
H	-0.6638901711	-1.0866285824	 0.4884084316	 0.139602
H	 0.9808311666	-0.4270754369	 0.54703971	 0.134834
H	 1.126822092	 1.8217259456	-1.088986851	 0.104086
48.1605	107.1899	129.1268	159.5647	209.1355	242.9413	259.6381	323.3536	362.2406	442.5602	499.8921	609.8258	637.6243	687.8779	722.2405	755.4996	812.0936	894.8079	943.1586	983.7461	1010.518	1017.8692	1064.7429	1087.8318	1090.4062	1161.8244	1183.3987	1224.9609	1277.3017	1296.0518	1354.841	1399.9132	1408.7405	1416.4457	1421.4667	1472.846	1489.4088	1490.8351	1492.762	1587.6859	1655.5414	3031.8165	3032.8898	3046.2404	3082.4561	3103.2221	3121.2145	3130.2958	3242.2785	3272.5502	3810.5423
CC(O)C1=COC(C)=C1	C[C@H](O)c1coc(C)c1	
InChI=1S/C7H10O2/c1-5-3-7(4-9-5)6(2)8/h3-4,6,8H,1-2H3	InChI=1S/C7H10O2/c1-5-3-7(4-9-5)6(2)8/h3-4,6,8H,1-2H3/t6-/m0/s1
