19
gdb 56	3.3077448	1.0678688	0.8369056	1.491	79.74	-0.20801	0.02129	0.2293	1386.475	0.155953	-422.569495	-422.560029	-422.559085	-422.604728	33.233	
C	 1.4862587642	 0.2826142748	-0.0472561827	-0.222491
O	 0.0858509414	 0.4268020214	-0.0374135204	-0.227295
C	-0.4575111625	 0.3473438433	 1.2690091687	-0.190378
C	-1.9427954902	 0.5360371185	 1.2283978696	 0.148101
C	-2.655755367	 1.4477160019	 0.502402412	 0.290848
C	-2.2814127504	 2.504893965	-0.4735291504	-0.497916
O	-3.9877048552	 1.3074303391	 0.7686095535	-0.178947
C	-4.1217327245	 0.3038345555	 1.6761090771	-0.021133
C	-2.9070019117	-0.2073877318	 1.9923184108	-0.277606
H	 1.7978173214	-0.6951579709	 0.3534124407	 0.105008
H	 1.8155275799	 0.3592014204	-1.0861818239	 0.128024
H	 1.9846902152	 1.0674520282	 0.5442329394	 0.103454
H	-0.2235570229	-0.6320947996	 1.7187641085	 0.093491
H	 0.0218296555	 1.1071739516	 1.912381851	 0.095596
H	-2.4929595592	 3.5078958401	-0.0834275672	 0.128773
H	-1.2177616681	 2.4260510002	-0.6981956295	 0.151325
H	-2.8424973613	 2.3937781527	-1.4080352695	 0.135076
H	-5.1298254908	 0.0776127379	 1.9813050496	 0.130388
H	-2.7053986737	-1.0165511285	 2.6777651726	 0.10568
38.5959	90.7973	128.1695	143.4164	229.669	234.3595	262.2062	326.5567	370.9165	412.3504	620.1931	652.7272	687.0115	735.2954	769.3016	818.7171	912.8391	968.0611	982.7822	1018.3246	1067.2196	1075.038	1140.9059	1163.3132	1178.2139	1189.0725	1223.3243	1243.7873	1262.1403	1282.6848	1395.6242	1417.9401	1453.8735	1479.4877	1484.0761	1485.133	1489.124	1502.7994	1524.9896	1549.769	1660.8822	2935.8677	2966.9664	2973.4709	3011.5778	3028.4043	3078.2138	3116.0082	3156.4841	3246.8397	3284.1136
COCC1=C(C)OC=C1	COCc1c(C)occ1	
InChI=1S/C7H10O2/c1-6-7(5-8-2)3-4-9-6/h3-4H,5H2,1-2H3	InChI=1S/C7H10O2/c1-6-7(5-8-2)3-4-9-6/h3-4H,5H2,1-2H3
