19
gdb 403	3.0837598	1.5711839	1.3739169	1.5872	74.24	-0.24393	0.08048	0.32441	997.43	0.158709	-422.521014	-422.513797	-422.512853	-422.552402	29.178	
C	 0.6734208348	 1.3647334422	-0.0537931086	-0.250332
O	 0.0586584454	 0.0681371297	-0.0744517391	-0.291978
C	 1.4810639209	 0.1431494462	 0.0359014588	 0.426648
C	 2.2242757194	-0.4320317829	-1.1736546934	-0.153677
O	 3.6001203988	-0.6985339286	-0.9124297156	-0.274395
C	 3.8903522938	-0.9906700614	 0.448875024	 0.133382
C	 2.7150142004	-1.7115053807	 1.1653309273	-0.268591
C	 2.1138666168	-0.2843720406	 1.3439301861	-0.101329
C	 3.5801841207	 0.2439331752	 1.3364331081	-0.238914
H	 0.626391539	 1.917333682	-0.9915516881	 0.113654
H	 0.4801301722	 1.9564640383	 0.8409426866	 0.112933
H	 1.7073768689	-1.3593703928	-1.4599421366	 0.113888
H	 2.186346036	 0.2437666812	-2.0324097719	 0.112348
H	 4.8889558789	-1.4300273528	 0.4596707889	 0.078998
H	 2.1466141913	-2.4637173101	 0.6138372036	 0.109966
H	 3.0404889916	-2.1303472925	 2.1201635304	 0.106071
H	 1.4607143852	-0.0729421561	 2.1925328947	 0.070205
H	 3.7771745497	 1.2262206351	 0.8996418709	 0.100227
H	 4.0441446862	 0.1705325485	 2.3232448238	 0.100897
110.9689	207.4289	326.9172	342.2949	397.9125	411.7854	419.2861	510.923	548.2421	710.1542	803.7026	833.0474	850.7841	890.8955	903.4992	916.1579	918.9248	950.7053	986.1927	1021.3659	1056.5663	1074.4371	1084.6059	1106.7691	1125.939	1135.4701	1161.8916	1187.1533	1237.9126	1248.7837	1263.9399	1269.9135	1281.3691	1316.3415	1354.4351	1389.4692	1440.6014	1468.8716	1495.3619	1515.1947	1531.4904	2999.2349	3058.4416	3069.0662	3074.9816	3083.939	3094.3378	3102.6764	3120.1487	3125.7538	3161.1495
C1OC11COC2CC1C2	C1O[C@]21CO[C@@H]1C[C@H]2C1	
InChI=1S/C7H10O2/c1-5-2-6(1)8-3-7(5)4-9-7/h5-6H,1-4H2	InChI=1S/C7H10O2/c1-5-2-6(1)8-3-7(5)4-9-7/h5-6H,1-4H2/t5-,6+,7-/m0/s1
