19
gdb 108	5.7283118	0.8196045	0.8054316	2.6133	76.	-0.23627	0.07832	0.31459000000000004	1463.1737	0.156397	-422.484941	-422.476684	-422.47574	-422.51859	30.722	
C	-0.5940633123	-2.1195575539	 0.1291349289	-0.246251
C	-1.438258873	-2.8734036977	-0.8698045738	 0.096034
C	-1.8650174431	-4.2587404429	-0.6460181094	-0.180164
O	-0.7962539628	-3.9621257253	-1.5458431508	-0.239737
C	 0.3493003122	-1.1431018702	-0.5571786998	 0.134839
O	-0.4039366209	-0.0873500405	-1.2384895039	-0.306979
C	 0.1355523207	 0.886929449	-0.3430272528	 0.110433
C	 1.6203865213	 0.9858615177	-0.4904709974	-0.306043
C	 1.0191309524	-0.118337763	 0.3561825001	-0.137658
H	-1.2426907312	-1.5649353091	 0.818480015	 0.105322
H	-0.0049041573	-2.8331454904	 0.7184004148	 0.102664
H	-2.0462449348	-2.2461837777	-1.5214436883	 0.111197
H	-1.5748210596	-4.7669398637	 0.2733653887	 0.109395
H	-2.7791053712	-4.6282981656	-1.1088417571	 0.114352
H	 1.0029723053	-1.6734706341	-1.2605451441	 0.097708
H	-0.5215039488	 1.6725987418	 0.011513351	 0.102909
H	 2.0785898731	 0.7614847062	-1.4498986967	 0.118549
H	 2.0968833993	 1.7803311299	 0.0759658938	 0.11521
H	 1.2453802809	-0.2609891003	 1.4045152016	 0.09822
68.5348	78.0337	128.3206	197.6453	312.5425	326.2259	451.6938	467.0519	534.5682	754.1231	762.7273	796.1214	846.8935	851.2557	891.1755	925.5127	961.7303	966.9488	980.1428	990.7454	1039.7732	1054.1577	1060.8466	1088.3565	1093.2699	1113.0312	1137.5506	1159.8335	1175.1899	1206.3676	1237.0319	1242.3476	1284.1596	1297.762	1313.5795	1361.8647	1398.1428	1444.515	1458.4837	1472.9497	1532.0038	3026.1895	3036.4192	3075.1622	3079.3521	3114.6747	3121.6124	3165.0415	3178.003	3198.2106	3209.7562
C(C1CO1)C1OC2CC12	C([C@@H]1CO1)[C@H]1O[C@@H]2C[C@H]12	
InChI=1S/C7H10O2/c1(4-3-8-4)6-5-2-7(5)9-6/h4-7H,1-3H2	InChI=1S/C7H10O2/c1(4-3-8-4)6-5-2-7(5)9-6/h4-7H,1-3H2/t4-,5-,6-,7-/m1/s1
