19
gdb 322	2.4045398	2.0841271	1.4271087	1.9295	74.72	-0.25767	0.07397	0.33164	949.5513	0.159182	-422.493981	-422.486986	-422.486042	-422.524874	28.946	
C	 1.7962542346	 2.5941230944	 0.8417821628	-0.292812
C	 2.5071205296	 1.9850732332	 2.0798674073	-0.031728
C	 1.2033015262	 1.13271537	 2.336034552	-0.315566
C	 1.0892776071	 1.2515813714	 0.8084519471	 0.41013
O	 0.3315159646	 0.7459793746	-0.2736787638	-0.320253
C	 1.600230292	 0.1255106677	 0.0463140445	 0.002354
C	 2.9924442128	 0.3140107408	-0.5088126938	-0.144348
O	 3.7964670165	 0.2070334267	 0.6754474888	-0.265706
C	 3.8091249365	 1.259866105	 1.6477649955	-0.069944
H	 1.1054001342	 3.3959979297	 1.119468681	 0.101996
H	 2.4025960147	 2.9175204862	-0.0062421527	 0.10062
H	 2.77882836	 2.676110641	 2.8830338006	 0.078366
H	 1.3003746921	 0.1308765816	 2.7578251405	 0.109811
H	 0.4788279185	 1.7193910637	 2.9091470752	 0.104261
H	 1.4718546235	-0.8626106334	 0.4874239536	 0.101536
H	 3.329188468	-0.5008991966	-1.1548799248	 0.111946
H	 3.1311996281	 1.2614835818	-1.0421651191	 0.107433
H	 4.2719897398	 0.7916258359	 2.522840337	 0.114632
H	 4.4906181112	 2.0543720465	 1.3020398284	 0.097271
176.1761	270.9786	309.5873	374.5863	402.1993	407.4625	445.6999	514.4121	558.8022	653.4114	737.3247	824.5081	860.4118	874.4662	885.3287	897.0474	952.9327	979.2107	1012.2888	1020.5903	1041.4618	1077.381	1104.0369	1119.141	1135.5572	1141.3034	1172.1006	1192.93	1229.3001	1249.7697	1260.41	1321.642	1334.7647	1347.5091	1379.8096	1414.6037	1480.2955	1490.7352	1497.901	1516.0312	1528.8151	2971.0132	3036.1211	3053.9269	3057.2429	3067.853	3076.2654	3094.6284	3114.0464	3118.3495	3125.8166
C1C2CC11OC1COC2	C1[C@H]2C[C@]31O[C@H]3COC2	
InChI=1S/C7H10O2/c1-5-2-7(1)6(9-7)4-8-3-5/h5-6H,1-4H2	InChI=1S/C7H10O2/c1-5-2-7(1)6(9-7)4-8-3-5/h5-6H,1-4H2/t5-,6-,7-/m0/s1
