19
gdb 68	3.0659024	1.0740129	0.8074088	1.1827	78.8	-0.20439	0.03219	0.23657999999999998	1430.1676	0.156036	-422.571773	-422.562362	-422.561417	-422.606489	33.616	
C	 0.1141784619	-0.4798545311	-0.612957136	-0.391149
C	 1.4236355396	 0.1363704028	-0.1576496589	-0.050981
O	 1.1420759901	 1.0615528214	 0.8868258006	-0.267664
C	 2.2160595031	 1.6999735985	 1.4039836369	 0.248218
C	 3.5406842216	 1.607178376	 1.0910003499	-0.157178
O	 4.2555538697	 2.4555311562	 1.8927088929	-0.157154
C	 3.364640562	 3.0760236108	 2.7059606045	-0.0756
C	 2.0922269908	 2.6642891525	 2.4654519603	 0.114971
C	 0.8234093148	 3.091334651	 3.1304309183	-0.500456
H	-0.3741936461	-1.0019687707	 0.2144653333	 0.131227
H	-0.566521841	 0.2916808692	-0.983253002	 0.131227
H	 0.2958930564	-1.1980217201	-1.4178268829	 0.119851
H	 2.1165440475	-0.6330471036	 0.2142345243	 0.103402
H	 1.9240376813	 0.6618262754	-0.9846433035	 0.103401
H	 4.1082179427	 1.0337981161	 0.3804886091	 0.129271
H	 3.779850954	 3.7845600744	 3.4046493972	 0.131668
H	 1.0182003663	 3.8379781927	 3.9049342958	 0.121527
H	 0.1213412664	 3.5251100745	 2.4097728776	 0.132711
H	 0.312476619	 2.2424844241	 3.5982106927	 0.132707
72.3532	101.9775	122.5375	128.149	242.4934	247.2671	255.0315	349.4008	359.0997	501.0089	606.5467	628.1861	648.2685	709.4327	763.6788	767.5112	828.2322	891.3234	925.6823	1011.1442	1066.5331	1072.0718	1081.2845	1138.234	1188.1416	1194.9593	1215.2505	1258.8617	1294.8734	1330.8848	1392.1248	1407.4334	1420.5056	1440.1126	1478.7914	1483.7903	1498.2555	1500.832	1526.1796	1597.4998	1667.1422	2986.4189	3019.4696	3032.2263	3047.4949	3082.8785	3114.1292	3122.5437	3125.1907	3267.3908	3295.7937
CCOC1=COC=C1C	CCOc1cocc1C	
InChI=1S/C7H10O2/c1-3-9-7-5-8-4-6(7)2/h4-5H,3H2,1-2H3	InChI=1S/C7H10O2/c1-3-9-7-5-8-4-6(7)2/h4-5H,3H2,1-2H3
