19
gdb 280	2.656996	1.9872595	1.4710192	2.3876	74.17	-0.24442	0.07068	0.3151	941.532	0.159464	-422.516252	-422.509266	-422.508322	-422.547283	28.483	
C	 3.1327201713	 0.3136846085	-1.9524440517	-0.319843
C	 2.4806633327	-0.1134489253	-0.6648641871	 0.096603
O	 1.4280272993	-1.0246253989	-0.7936504752	-0.235764
C	 0.1664541452	-0.6696939892	-0.2683128931	-0.096114
C	-0.4433605097	 0.5910890895	-0.932980794	 0.0898
C	 0.0351790681	 1.9485947411	-0.3797936111	-0.2653
C	 1.0232807785	 1.8740507101	-1.5625722161	 0.073028
O	 0.1978281558	 0.8672450049	-2.2026499578	-0.278026
C	 2.3631423108	 1.3216555217	-1.1349338077	-0.050734
H	 4.2124616223	 0.3932054069	-2.0084125511	 0.109272
H	 2.6395727405	-0.0566763282	-2.8441180853	 0.13864
H	 3.1134712504	-0.3026963246	 0.202391636	 0.08443
H	-0.4657660889	-1.5397979917	-0.4695441597	 0.112677
H	 0.1979147752	-0.5249583985	 0.824564128	 0.087012
H	-1.5258162058	 0.467774032	-1.0438998179	 0.080417
H	-0.7141463848	 2.7344477024	-0.4925356261	 0.106826
H	 0.456316782	 1.9724558502	 0.6277717968	 0.099882
H	 1.130813848	 2.7617356892	-2.1950946242	 0.079302
H	 2.952570279	 2.0413135299	-0.5695909124	 0.087891
164.1572	187.3407	323.2198	333.8119	386.1058	400.1998	478.6396	603.4919	712.2761	740.9535	771.5446	805.2647	840.7445	891.0463	916.97	923.7326	952.6954	983.3921	1013.5297	1015.1215	1067.431	1075.2496	1105.7768	1113.5394	1123.8184	1130.9431	1150.8306	1187.8695	1224.8336	1241.0028	1261.1489	1283.9925	1325.7829	1348.6622	1360.6949	1382.6229	1399.277	1412.459	1474.7385	1486.5264	1497.9747	2967.5434	3046.9127	3047.9994	3069.8397	3081.2319	3095.447	3124.9367	3127.198	3139.1995	3233.8087
C1C2OCC3CC(O3)C12	C1[C@@H]2OC[C@H]3C[C@H](O3)[C@H]12	
InChI=1S/C7H10O2/c1-4-3-8-6-2-5(6)7(1)9-4/h4-7H,1-3H2	InChI=1S/C7H10O2/c1-4-3-8-6-2-5(6)7(1)9-4/h4-7H,1-3H2/t4-,5-,6+,7+/m1/s1
