19
gdb 136	3.4115695	1.5475242	1.2286397	0.2982	75.08	-0.23128	0.07957	0.31085	1038.6086	0.15903	-422.511202	-422.503936	-422.502992	-422.54288	28.786	
C	 0.1196851688	 0.6795594582	 0.8240543339	-0.297081
C	-0.3469446016	 1.6040298966	-0.2617666525	-0.049579
C	-0.8915889549	 0.1798988118	-0.1720906843	-0.098319
C	-0.1116626644	-0.2149689768	-1.4455901748	 0.112618
O	-0.7986814769	-0.8165675455	-2.5135036167	-0.272986
C	-1.5665229891	 0.0603113499	-3.3250622296	-0.084878
C	-0.7174449507	 1.2405870787	-3.7528646459	-0.075145
O	-0.3658326685	 2.0082401514	-2.6151132526	-0.271958
C	 0.3241413338	 1.2941309473	-1.6022247884	 0.070771
H	 1.1323209359	 0.2790421683	 0.8203873281	 0.105804
H	-0.2612860042	 0.9035266785	 1.8150828923	 0.116883
H	-0.8344938604	 2.5496720172	-0.0593826299	 0.094292
H	-1.8724900505	-0.1818537939	 0.1104498619	 0.090456
H	 0.7241127032	-0.8906637015	-1.2330132577	 0.084166
H	-1.8940682115	-0.5325624833	-4.1843278312	 0.107352
H	-2.4548969606	 0.4261481177	-2.7877281529	 0.099482
H	 0.1763958176	 0.8792428228	-4.286663018	 0.09447
H	-1.2727912281	 1.9115184414	-4.4153663496	 0.108712
H	 1.4044837021	 1.4831309111	-1.692451652	 0.064937
106.8013	137.5511	305.7779	316.892	375.2754	409.9567	486.5046	514.4254	631.0037	761.1201	799.8143	808.2055	878.3718	884.9001	918.5319	935.5024	960.478	971.6464	1025.5486	1045.6235	1064.146	1071.3611	1074.6117	1087.9514	1127.0594	1157.9047	1174.7101	1208.7266	1246.0066	1251.7093	1271.4168	1301.2769	1311.7357	1332.3385	1358.2891	1382.5689	1408.3116	1422.0121	1490.0215	1490.6574	1492.3167	2977.3443	2983.6013	2995.4977	3041.4383	3084.7397	3087.1633	3097.6406	3183.7348	3188.5937	3201.4823
C1C2C1C1OCCOC21	C1[C@@H]2[C@H]1[C@H]1OCCO[C@@H]21	
InChI=1S/C7H10O2/c1-2-9-7-5-3-4(5)6(7)8-1/h4-7H,1-3H2	InChI=1S/C7H10O2/c1-2-9-7-5-3-4(5)6(7)8-1/h4-7H,1-3H2/t4-,5+,6+,7-
