19
gdb 178	3.8165143	1.4311487	1.2155133	1.2292	75.05	-0.25045	0.0939	0.34435	1050.9345	0.159033	-422.506466	-422.49924	-422.498296	-422.538543	28.344	
C	 1.6161567064	 0.3548764309	-0.6398247616	-0.232275
C	 0.4020692672	-0.3793491124	-1.2904312676	-0.116137
C	 0.2984620036	-1.1960124956	 0.0331057653	-0.236559
C	 0.5358466165	 0.2762466458	 0.4827372267	-0.124176
C	-0.5069791104	 0.6750916411	-0.6061592763	 0.48111
C	-2.0201469806	 0.4452462388	-0.3763587031	-0.196167
O	-2.6514053513	 1.574002907	-0.9624441176	-0.239797
C	-1.6893093664	 2.5949666931	-0.901062261	 0.001221
O	-0.4444248951	 1.9879877949	-1.1426857807	-0.307119
H	 2.5094449372	-0.2546283844	-0.4812419651	 0.089045
H	 1.8573377093	 1.3446826382	-1.0242297868	 0.116909
H	 0.3168186506	-0.753212612	-2.3116898061	 0.074793
H	-0.6609983832	-1.6588903789	 0.2767909815	 0.096562
H	 1.1243608236	-1.8839465556	 0.2249168859	 0.098705
H	 0.6055313641	 0.6538771269	 1.5042845883	 0.071025
H	-2.4040512547	-0.4509580465	-0.8689807535	 0.122723
H	-2.2483804351	 0.3828447656	 0.6986873087	 0.101195
H	-1.8934567297	 3.3312239736	-1.6834208996	 0.119348
H	-1.697141422	 3.0824247895	 0.0923136727	 0.079594
50.7756	201.625	243.6961	273.4914	400.0656	427.5784	542.304	587.8528	745.1411	767.1522	792.9729	803.8385	882.149	896.8859	904.4374	982.4501	992.3167	1014.2923	1016.5694	1030.3676	1055.7448	1087.5145	1113.0147	1115.9478	1122.3277	1134.6901	1180.8491	1188.7614	1193.8911	1204.7536	1228.1109	1243.7666	1246.7562	1262.9891	1306.0587	1362.6122	1432.8031	1499.6977	1513.4565	1537.9528	1544.2674	2922.6216	2986.1599	3060.6477	3067.984	3089.519	3095.4288	3099.1931	3108.3456	3124.9147	3154.9974
C1C2CC1C21COCO1	C1[C@H]2C[C@@H]1[C@@]12COCO1	
InChI=1S/C7H10O2/c1-5-2-6(1)7(5)3-8-4-9-7/h5-6H,1-4H2	InChI=1S/C7H10O2/c1-5-2-6(1)7(5)3-8-4-9-7/h5-6H,1-4H2/t5-,6+,7-
