19
gdb 187	3.5835663	1.3015683	1.2206227	1.4764	74.01	-0.2493	0.07812	0.32742	1080.211	0.15803	-422.518533	-422.510807	-422.509862	-422.551256	29.416	
C	 1.8394703887	-0.4290386948	-1.3703081097	-0.352808
C	 1.6439767659	 0.6182064052	-0.2660221912	 0.038276
O	 0.3399269727	 1.1887072679	-0.4424136631	-0.252677
C	 0.4451883374	-0.0643518893	 0.2403960836	-0.023711
C	 0.5587456964	-1.1635617285	-0.8389478432	 0.334009
C	-0.665452874	-1.3733960791	-1.7419553918	-0.319725
C	-1.379686229	-2.5911584006	-1.1040583363	-0.071712
O	-0.5516184074	-3.0431701911	-0.0276863365	-0.25649
C	 0.7597469866	-2.564023378	-0.2632420372	-0.148888
H	 1.8013275036	-0.0429071089	-2.3918852802	 0.111329
H	 2.7445714192	-1.030146459	-1.2400734621	 0.107944
H	 2.3840663409	 1.2256165461	 0.2411984987	 0.105659
H	 0.0206328008	-0.1329721744	 1.2359567277	 0.105297
H	-1.2889097677	-0.4780211076	-1.7837812939	 0.124921
H	-0.34716954	-1.6000239985	-2.7644009713	 0.104565
H	-2.3581784821	-2.3432761685	-0.6817855641	 0.109698
H	-1.5219249644	-3.398604039	-1.83620734	 0.093898
H	 1.3032892023	-2.5818744246	 0.6871125619	 0.106397
H	 1.3030897801	-3.2007763874	-0.9836597913	 0.084018
55.7554	145.1679	160.9455	237.5321	347.1771	400.1733	451.4602	544.2848	698.9464	746.7329	790.1745	831.7234	843.6922	862.3991	890.7864	922.1158	935.8135	962.2875	983.566	988.9271	1027.0207	1050.6176	1094.4898	1115.7203	1137.5585	1162.4658	1217.8682	1221.1675	1227.8436	1244.5425	1254.2651	1258.2536	1298.4476	1323.9384	1357.4155	1384.2195	1401.9272	1472.7352	1496.8096	1511.0182	1531.6044	2948.283	3000.4967	3054.4049	3056.6998	3071.6773	3073.8144	3112.6389	3114.6831	3177.4522	3195.2546
C1C2OC2C11CCOC1	C1[C@H]2O[C@H]2[C@]21CCOC2	
InChI=1S/C7H10O2/c1-2-8-4-7(1)3-5-6(7)9-5/h5-6H,1-4H2	InChI=1S/C7H10O2/c1-2-8-4-7(1)3-5-6(7)9-5/h5-6H,1-4H2/t5-,6-,7+/m1/s1
