19
gdb 36	3.1024711	1.0711311	0.8452778	2.019	80.98	-0.20811	0.01697	0.22508	1398.5359	0.15555	-422.593311	-422.583395	-422.582451	-422.628722	34.805	
C	 1.6863200181	 0.7207031063	 4.771105429	-0.495197
C	 1.8287574531	 0.4095726076	 3.3240476295	 0.255344
C	 2.8968250276	 0.211030982	 2.4988651102	 0.189424
C	 4.3528988312	 0.2575011421	 2.846703875	-0.505745
C	 2.3404144303	-0.0618569882	 1.1993332666	-0.37417
C	 0.9907061006	-0.0037206984	 1.3220823169	 0.343284
C	-0.1539507742	-0.2047707391	 0.3923454345	-0.175838
O	-0.9203070334	-1.3703770861	 0.6834922623	-0.413512
O	 0.6616020145	 0.2864391844	 2.6182068953	-0.230859
H	 1.1347146909	-0.06553934	 5.2999496526	 0.135818
H	 2.6691241697	 0.8143649396	 5.2375346072	 0.134611
H	 1.1449937615	 1.6608252799	 4.9284614892	 0.136934
H	 4.5097623007	 0.4842078262	 3.9045363661	 0.12232
H	 4.8450790187	-0.699488785	 2.6380911353	 0.130666
H	 4.8798924998	 1.0218825072	 2.2639114886	 0.129563
H	 2.8876555205	-0.2756833132	 0.293350878	 0.108047
H	-0.7972166221	 0.689768098	 0.3916686666	 0.099636
H	 0.2329799321	-0.3346332136	-0.6217184807	 0.122475
H	-1.1929154997	-1.3033214097	 1.6046824475	 0.287198
56.7941	90.033	112.3404	124.9397	214.8692	230.4295	262.8637	285.2057	317.5853	411.652	458.6144	598.7146	633.922	650.064	710.4582	790.5501	818.2089	930.532	987.3673	998.9708	1015.3208	1043.8009	1057.5769	1066.8716	1146.9482	1173.1416	1207.1526	1241.7726	1295.6936	1368.445	1396.1757	1417.6374	1425.7697	1432.9988	1471.9464	1483.1666	1489.8556	1491.1415	1497.4549	1614.081	1683.046	2975.9259	3027.0146	3028.7529	3075.3273	3075.9456	3099.5421	3111.3388	3131.2472	3245.6897	3815.5157
CC1=C(C)C=C(CO)O1	Cc1c(C)cc(CO)o1	
InChI=1S/C7H10O2/c1-5-3-7(4-8)9-6(5)2/h3,8H,4H2,1-2H3	InChI=1S/C7H10O2/c1-5-3-7(4-8)9-6(5)2/h3,8H,4H2,1-2H3
