19
gdb 70	6.138257	0.7422656	0.6704697	1.1869	79.65	-0.19111	0.03862	0.22973	1688.2938	0.15641	-422.570159	-422.560921	-422.559977	-422.606061	32.682	
C	 5.8610113873	 3.3034126759	-1.1823534635	-0.385303
C	 5.1660120603	 2.2952949187	-0.2631843336	-0.186895
C	 3.6979747683	 2.1213876606	-0.6167736562	-0.054769
O	 3.1440567635	 1.1640687273	 0.2962168152	-0.279145
C	 1.8514700439	 0.8550708333	 0.1672871727	 0.454478
C	 1.0783658677	-0.0068331244	 0.8836051873	-0.321686
C	-0.2270088029	 0.0768336106	 0.2899952436	-0.159664
C	-0.1448755404	 0.9697054094	-0.7250068	-0.036479
O	 1.1399489035	 1.4604818189	-0.8121687284	-0.187239
H	 6.9146632669	 3.4149155716	-0.9123136906	 0.121424
H	 5.8180971711	 2.9855715568	-2.2298169344	 0.119986
H	 5.3945489252	 4.2924333482	-1.1167508507	 0.119981
H	 5.6602099778	 1.3192485881	-0.3256282175	 0.112031
H	 5.2396930133	 2.6184031964	 0.7813101088	 0.112033
H	 3.1530147634	 3.0698400597	-0.531087717	 0.113294
H	 3.5765546629	 1.7613782235	-1.6461142385	 0.113277
H	 1.398658835	-0.612114388	 1.7143698586	 0.107131
H	-1.1096556584	-0.4659849188	 0.5908789796	 0.108702
H	-0.8378509786	 1.362315692	-1.4482110253	 0.128843
21.3461	59.4098	113.0919	122.1772	235.3948	289.0727	291.2282	342.7012	514.4181	607.166	643.6145	701.0899	731.012	758.958	765.7003	838.2911	896.1764	897.298	913.7071	954.0373	1025.3618	1039.0725	1058.5179	1098.9764	1143.0469	1176.6711	1187.1598	1250.1502	1267.3098	1299.0808	1315.928	1335.1839	1411.1776	1420.4195	1430.5338	1492.4731	1502.0341	1506.3011	1521.3969	1564.1046	1657.4643	3017.476	3034.5771	3042.6158	3053.2462	3079.0732	3104.2325	3112.7287	3253.5178	3278.8469	3298.6745
CCCOC1=CC=CO1	CCCOc1ccco1	
InChI=1S/C7H10O2/c1-2-5-8-7-4-3-6-9-7/h3-4,6H,2,5H2,1H3	InChI=1S/C7H10O2/c1-2-5-8-7-4-3-6-9-7/h3-4,6H,2,5H2,1H3
