19
gdb 320	2.4401073	1.8434034	1.2169143	1.7218	76.91	-0.23144	0.0063	0.23774	1045.4149	0.158067	-422.50955	-422.501695	-422.500751	-422.541949	30.592	
C	-0.2731180525	-0.701448367	-0.4612865585	-0.355517
C	 0.2762005882	-1.1417994717	-1.8048523243	 0.103365
O	-0.3177788107	-0.7123081992	-2.9889528297	-0.265878
C	 0.0868733746	 0.5413914567	-3.5547758618	-0.117888
C	 1.5355168503	 0.5682454359	-3.9754578018	-0.081413
C	 2.5682880118	 0.909569679	-3.205679589	-0.040589
C	 2.5368421831	 1.3398953662	-1.7633984961	-0.13489
O	 1.3351645625	 1.062692124	-1.0649773618	-0.241339
C	 1.1157905808	-0.2999953133	-0.8609428221	 0.079305
H	-1.0072003762	 0.0966796254	-0.5013379222	 0.129793
H	-0.4218603255	-1.4244233798	 0.3329505048	 0.112945
H	 0.5846420025	-2.1819937118	-1.8868267403	 0.095258
H	-0.5527356593	 0.6445785879	-4.4356513479	 0.103981
H	-0.1393329979	 1.3634992556	-2.8710407275	 0.115981
H	 1.7414931739	 0.2431343678	-4.9925480969	 0.09396
H	 3.5707720557	 0.8814151889	-3.6309566892	 0.091976
H	 3.3906999943	 0.8786516615	-1.2372407409	 0.10047
H	 2.676129955	 2.4259785029	-1.6866290716	 0.124637
H	 1.9589713894	-0.8067019992	-0.386638873	 0.085842
60.8075	221.0739	233.4704	284.4025	293.8373	336.5728	413.2528	472.5409	526.6423	672.9124	724.4065	741.7971	756.4788	787.5513	836.729	875.231	951.1599	997.73	1000.2776	1007.1731	1032.5235	1046.2299	1074.4202	1101.8644	1123.0405	1138.4248	1168.7061	1179.2163	1254.0542	1272.6226	1302.9732	1313.1541	1365.4078	1391.4191	1408.1896	1417.5858	1432.5967	1474.5253	1484.9902	1503.5772	1728.1607	2956.9728	3040.9272	3058.4841	3073.1488	3100.4512	3122.5013	3131.8162	3133.674	3160.6877	3225.046
C1C2OCC=CCOC12	C1[C@H]2OCC=CCO[C@@H]12	
InChI=1S/C7H10O2/c1-2-4-9-7-5-6(7)8-3-1/h1-2,6-7H,3-5H2/b2-1-	InChI=1S/C7H10O2/c1-2-4-9-7-5-6(7)8-3-1/h1-2,6-7H,3-5H2/b2-1-/t6-,7+
