19
gdb 213	2.6447487	1.9905488	1.7251849	2.5394	72.47	-0.23754	0.0786	0.31614	889.7095	0.160824	-422.554121	-422.547544	-422.5466	-422.584702	27.645	
C	-0.933193975	 2.806866594	-0.8530146114	-0.326307
C	 0.1133271872	 2.1725109831	-1.7275519015	 0.113431
O	 1.4664916846	 2.1908231003	-1.3423942432	-0.262168
C	 1.8359821229	 1.2975302101	-0.3076895579	 0.217817
C	 1.1343434314	-0.0566954535	-0.4431660055	-0.262282
C	-0.2444401499	 0.3810915721	 0.0933762074	-0.062492
C	 0.2132745669	 1.125330016	 1.3508567213	-0.08638
O	 1.4351465789	 1.7758594921	 0.9701248496	-0.270574
C	-0.8565684453	 1.2936546512	-0.9784288723	-0.070059
H	-0.5777529088	 3.2753094209	 0.0567946871	 0.136881
H	-1.7679221917	 3.3109085302	-1.3280397032	 0.107916
H	 0.0264008401	 2.2668519521	-2.8049741379	 0.095153
H	 2.9265527068	 1.2796625941	-0.3288059434	 0.089904
H	 1.1178645466	-0.4244240698	-1.4702304199	 0.109948
H	 1.6136135715	-0.7970383692	 0.2041386304	 0.105071
H	-0.9154732016	-0.4451801296	 0.3354588719	 0.071142
H	-0.5013003528	 1.8740916527	 1.7038931197	 0.108169
H	 0.4120877537	 0.4228405351	 2.1717913722	 0.095656
H	-1.6331253057	 0.8236384081	-1.5738495735	 0.089173
145.7924	286.1327	350.019	407.4243	457.6584	482.4447	523.7819	619.5107	722.5519	771.2909	794.414	814.733	848.9438	874.8321	920.2077	933.8379	950.6703	980.0502	996.4241	1012.6757	1043.0107	1063.1312	1071.524	1106.3263	1118.561	1127.5206	1169.632	1175.0311	1204.5355	1231.3921	1246.5023	1305.2725	1317.5647	1350.2459	1358.0164	1385.4796	1393.7973	1416.1238	1476.5989	1487.4933	1530.1868	3010.881	3063.1824	3082.0672	3089.9195	3111.946	3128.2729	3139.2165	3148.2423	3161.0916	3233.2223
C1C2OC3CC(CO3)C12	C1[C@H]2O[C@@H]3C[C@@H](CO3)[C@@H]12	
InChI=1S/C7H10O2/c1-4-3-8-7(1)9-6-2-5(4)6/h4-7H,1-3H2	InChI=1S/C7H10O2/c1-4-3-8-7(1)9-6-2-5(4)6/h4-7H,1-3H2/t4-,5+,6+,7+/m0/s1
