19
gdb 339	2.6303292	1.8995947	1.3185258	1.6404	74.59	-0.23431	0.07884	0.31315	993.8318	0.158878	-422.521935	-422.514622	-422.513678	-422.553523	29.241	
C	-0.7455708214	 0.5968062914	-0.9228245757	-0.412908
C	-1.1193212164	-0.2105937533	 0.2992289517	 0.083115
O	-0.8861542212	-1.5909366492	 0.3981126551	-0.248803
C	 0.4616401959	-1.9757218144	 0.2259036501	 0.003233
O	 1.3454378641	-1.2653190782	 1.0457659138	-0.244807
C	 1.4074845226	 0.0997153418	 0.6572891653	 0.064368
C	 1.5553187632	 1.0876869608	 1.8403935	-0.237844
C	 0.3178424484	 1.8850552044	 1.3184977198	-0.333048
C	 0.0418635432	 0.7274269278	 0.3570057892	 0.28371
H	-0.2696043087	 0.106376728	-1.7667554076	 0.116131
H	-1.4188384423	 1.4031990952	-1.1971349974	 0.116365
H	-2.0417125255	 0.0426393676	 0.8121922301	 0.103468
H	 0.513011558	-3.0248725781	 0.5220031439	 0.121284
H	 0.7554745451	-1.8740940981	-0.834785358	 0.080334
H	 2.1576767576	 0.2302583451	-0.1364555135	 0.068005
H	 1.3605972834	 0.5741108315	 2.7834254081	 0.122113
H	 2.5002347268	 1.6288761452	 1.9104127177	 0.103646
H	-0.4600051917	 2.115432819	 2.0512150171	 0.105288
H	 0.592692609	 2.8093756837	 0.8014910904	 0.106349
98.5416	193.2865	277.6205	308.9388	398.4637	418.713	487.1117	523.8429	555.2591	682.0454	766.8866	772.4771	816.3739	863.6224	901.8488	931.4048	937.1203	989.4753	1012.4852	1017.2671	1033.776	1070.19	1103.0761	1110.8867	1141.4205	1172.2605	1192.8	1224.8392	1230.448	1245.033	1274.6964	1286.6816	1308.9487	1340.3303	1365.423	1405.4743	1448.1326	1471.3132	1484.3137	1494.9237	1518.8001	2935.1269	2990.1965	3050.8352	3079.775	3097.1429	3116.0043	3120.6644	3140.2276	3160.1356	3205.9878
C1C2OCOC3CCC123	C1[C@H]2OCO[C@@H]3CC[C@]123	
InChI=1S/C7H10O2/c1-2-7-3-6(7)9-4-8-5(1)7/h5-6H,1-4H2	InChI=1S/C7H10O2/c1-2-7-3-6(7)9-4-8-5(1)7/h5-6H,1-4H2/t5-,6-,7-/m1/s1
