19
gdb 337	2.4825305	1.944837	1.3342321	1.9026	74.37	-0.2217	0.07258	0.29428	990.416	0.158772	-422.517372	-422.51006	-422.509116	-422.548826	29.302	
C	-0.7617188391	-1.2283033449	-0.1062274831	-0.402137
C	-0.7034654849	-0.640824332	-1.508789267	 0.012424
O	-1.8462899754	-0.0209809331	-2.0265922538	-0.255456
C	-1.6111379519	 1.3642842436	-2.2762962161	-0.076981
C	-1.4601026434	 2.1387404972	-0.9602903375	-0.236211
C	-0.4128333839	 1.4982452751	-0.0388859289	-0.11662
C	 1.1050157811	 1.7163426039	-0.2661639381	-0.102401
O	 1.3503921294	 0.2854271551	-0.2594046515	-0.312197
C	-0.0506392873	 0.0544808024	-0.3582638889	 0.434209
H	-1.7055423204	-1.1999172336	 0.4291427121	 0.122729
H	-0.1577961156	-2.1135759027	 0.0647786158	 0.125985
H	-0.0826188707	-1.1544252018	-2.2424668402	 0.094863
H	-0.7217876388	 1.4866129542	-2.9135290011	 0.093965
H	-2.4778317115	 1.7249526993	-2.8368811748	 0.110053
H	-1.2110603524	 3.1870734693	-1.1648501521	 0.100265
H	-2.4321078993	 2.1363017815	-0.4549972146	 0.110777
H	-0.6711165918	 1.6471753152	 1.0130624329	 0.087099
H	 1.3571723217	 2.1626990181	-1.2376480158	 0.09988
H	 1.660172774	 2.2265789733	 0.5261499028	 0.109754
134.6873	182.4782	253.7657	352.2179	363.8649	423.4992	473.6182	476.6767	569.3993	646.8087	751.2004	803.1017	857.1167	863.7767	901.2778	931.5604	976.1079	987.0553	1003.2643	1023.8056	1034.3128	1057.4233	1088.181	1111.2298	1135.2131	1154.6254	1165.771	1206.5786	1231.379	1277.845	1286.3651	1320.4696	1331.0267	1363.8011	1389.6056	1394.1892	1417.2473	1474.2643	1478.6748	1500.8981	1525.5925	2988.6308	3012.4766	3032.8436	3060.7875	3075.0787	3087.6474	3093.8321	3108.2976	3126.973	3218.8905
C1C2OCCC3COC123	C1[C@H]2OCC[C@@H]3CO[C@]123	
InChI=1S/C7H10O2/c1-2-8-6-3-7(6)5(1)4-9-7/h5-6H,1-4H2	InChI=1S/C7H10O2/c1-2-8-6-3-7(6)5(1)4-9-7/h5-6H,1-4H2/t5-,6-,7+/m1/s1
