19
gdb 15	2.1959287	1.6012072	0.9422411	0.782	81.27	-0.18724	0.03381	0.22105	1260.8839	0.154367	-422.597094	-422.586735	-422.585791	-422.632442	36.194	
C	-1.0432564649	-2.1788810294	-2.1483689915	-0.494017
C	-1.0454630686	-0.894708177	-1.3988914011	 0.265261
C	-1.6614496289	 0.3048136037	-1.5977970691	 0.100169
C	-2.5823608273	 0.7308405253	-2.6964412575	-0.503255
C	-1.2408066758	 1.1300194441	-0.4979174595	 0.13498
O	-1.6656142861	 2.4195944169	-0.3639017023	-0.443247
C	-0.4090782657	 0.3928445196	 0.2878794583	 0.207405
C	 0.3379218326	 0.6664461156	 1.5416054185	-0.502786
O	-0.2857017565	-0.8593783011	-0.2655905342	-0.226049
H	-1.4177937663	-3.0046295207	-1.5320134537	 0.134599
H	-1.6781004706	-2.1028917505	-3.0337085792	 0.131918
H	-0.0332652778	-2.4505724632	-2.4772007984	 0.134598
H	-2.7496558522	-0.0754911699	-3.4152930429	 0.118254
H	-3.5581440382	 1.0374029737	-2.3027720864	 0.131973
H	-2.1794385977	 1.5904667839	-3.2439728531	 0.131982
H	-1.2761223693	 2.7998842399	 0.4296811678	 0.293542
H	 1.4208224504	 0.5520816749	 1.4095741147	 0.137527
H	 0.1568824031	 1.6930684266	 1.8771300523	 0.109642
H	 0.0344695897	-0.0019352223	 2.3567014874	 0.137505
84.4426	97.9856	111.6911	141.3204	171.5226	244.2094	249.8506	254.4551	285.9514	318.5749	372.3425	526.4585	573.4644	602.3851	618.8618	688.7711	733.9489	847.8591	937.2557	1003.3152	1044.74	1054.3585	1061.4155	1066.8285	1153.383	1191.9251	1250.4348	1292.6343	1320.0567	1412.0701	1417.9209	1425.9915	1463.8587	1471.3432	1479.1179	1483.7631	1490.696	1496.63	1509.3879	1649.1517	1712.0193	3015.5203	3026.4702	3030.0358	3064.1612	3073.4659	3077.9193	3092.8583	3112.7845	3130.2971	3827.1102
CC1=C(C)C(O)=C(C)O1	Cc1c(C)c(O)c(C)o1	
InChI=1S/C7H10O2/c1-4-5(2)9-6(3)7(4)8/h8H,1-3H3	InChI=1S/C7H10O2/c1-4-5(2)9-6(3)7(4)8/h8H,1-3H3
