19
gdb 269	3.6525634	1.1566449	1.0340351	1.7292	74.19	-0.23724	0.06775	0.30499	1188.9012	0.157272	-422.479255	-422.471192	-422.470247	-422.512746	29.866	
C	-1.2350071996	 3.4869243791	 0.3191557407	-0.352895
C	-1.5280878321	 2.4686972751	 1.3788490992	 0.059894
O	-2.9046799375	 2.0882244045	 1.3428043965	-0.284719
C	-2.7336659289	 1.559645561	 0.0005298135	-0.13285
C	-1.2715310706	 2.0117941326	-0.0428184895	 0.262178
C	-0.1550840997	 1.2646111058	-0.6986488879	-0.158917
C	 0.1106117771	-0.2027659419	-0.2747722205	-0.08554
O	 1.4925624199	 0.0866688281	 0.0147311188	-0.269576
C	 1.2934105779	 1.4954640198	-0.2032478631	-0.088598
H	-2.022895362	 4.1624436826	-0.0043119041	 0.11634
H	-0.2401205419	 3.9214849047	 0.3506477386	 0.117107
H	-0.9904430278	 2.34847841	 2.3126965084	 0.110162
H	-2.855128135	 0.4696600583	 0.0020257693	 0.108373
H	-3.4286824966	 2.0072483995	-0.7202007337	 0.105739
H	-0.228399707	 1.3637631431	-1.7869062972	 0.085325
H	-0.4372868767	-0.5215373678	 0.6223669276	 0.102368
H	 0.0058348847	-0.9686273116	-1.0515973232	 0.10357
H	 1.3732813774	 2.0669653325	 0.732064186	 0.096094
H	 2.0021252884	 1.9065000546	-0.9308298394	 0.105946
61.8677	76.5359	153.2241	187.8784	306.9564	395.246	443.9395	480.072	561.8447	755.5366	803.9874	850.681	873.4191	894.3553	930.8271	942.7998	985.7307	998.396	1003.227	1018.0283	1036.8093	1045.2719	1079.8142	1093.0013	1109.6991	1118.1939	1160.6042	1167.7294	1175.995	1213.3606	1262.8777	1283.7021	1308.5455	1313.5032	1354.8856	1389.9091	1424.6673	1486.865	1509.5845	1516.5252	1535.1172	2998.6023	3009.9605	3017.0103	3039.0183	3057.5318	3065.2718	3066.7708	3111.3242	3176.8981	3203.8369
C1C2OCC12C1COC1	C1[C@H]2OC[C@@]12C1COC1	
InChI=1S/C7H10O2/c1-6-7(1,4-9-6)5-2-8-3-5/h5-6H,1-4H2	InChI=1S/C7H10O2/c1-6-7(1,4-9-6)5-2-8-3-5/h5-6H,1-4H2/t6-,7-/m1/s1
