19
gdb 48	1.9667511	1.4428815	0.8913789	1.6491	77.46	-0.21952	0.02019	0.23970999999999998	1316.7879	0.156868	-422.581363	-422.572056	-422.571112	-422.616122	33.515	
C	 1.4201159923	-0.7299059639	 0.8698405541	-0.371227
C	 0.8742388598	 0.2416463199	-0.1906420897	-0.305115
C	 1.6247836209	 1.539772567	-0.2617639278	 0.1493
C	 1.1907111196	 2.7603035485	 0.1525459041	-0.103239
O	 2.1326548203	 3.717603995	-0.0567816349	-0.147587
C	 3.2019328084	 3.0927184469	-0.6164659531	-0.095279
C	 2.9604253928	 1.7627257594	-0.7706420765	 0.106296
C	 3.9015211715	 0.7606456217	-1.373180184	-0.169777
O	 4.9044125818	 1.3614589816	-2.178212368	-0.412044
H	 1.3754619162	-0.2817147011	 1.8670360378	 0.122636
H	 0.8391207556	-1.6574452924	 0.8844021658	 0.113563
H	 2.4640528197	-0.9927867701	 0.6717328012	 0.122791
H	 0.8944201108	-0.250972591	-1.1717581613	 0.105718
H	-0.1804275071	 0.4514092218	 0.0202910594	 0.104828
H	 0.2654759622	 3.0990846833	 0.5905034221	 0.133532
H	 4.0501195018	 3.7150475502	-0.8463307938	 0.143261
H	 4.4471720998	 0.2157907761	-0.5931795647	 0.125976
H	 3.331177845	 0.004308709	-1.9373898663	 0.095079
H	 4.4525962486	 1.8758017881	-2.8560311244	 0.281287
57.7367	79.7329	144.4073	169.9	212.6798	249.4689	299.0123	357.8587	403.119	485.703	607.1763	624.9168	674.3811	738.1667	765.4849	784.0142	789.2171	900.1428	966.94	995.0434	1059.6372	1067.4725	1086.0851	1088.8463	1168.7175	1185.9107	1211.2841	1243.1017	1283.3616	1302.5687	1357.8283	1362.3707	1404.8545	1407.8795	1434.2606	1481.5753	1495.9561	1501.7019	1507.7821	1575.1487	1645.2583	2966.1043	3017.5499	3036.934	3043.6636	3060.3825	3107.3134	3112.5989	3266.3679	3284.9886	3804.758
CCC1=COC=C1CO	CCc1cocc1CO	
InChI=1S/C7H10O2/c1-2-6-4-9-5-7(6)3-8/h4-5,8H,2-3H2,1H3	InChI=1S/C7H10O2/c1-2-6-4-9-5-7(6)3-8/h4-5,8H,2-3H2,1H3
