19
gdb 174	2.908204	1.9453102	1.912858	0.2752	72.36	-0.2265	0.08138	0.30788	854.0065	0.161427	-422.547061	-422.54094	-422.539996	-422.577067	26.582	
C	 0.6067572121	 0.8944719376	-0.6717171784	-0.22445
C	 0.4989368821	 1.7855044653	 0.5879815746	 0.057611
O	-0.9252472054	 1.4561921859	 0.6488990895	-0.290894
C	-0.5475354719	 0.1709394823	 0.0607530744	 0.057611
C	 0.0394814325	-0.7083200152	 1.2059468996	 0.0609
C	-0.6033858853	-0.3430453429	 2.5655073774	-0.204069
C	 0.2157580443	 0.9207918017	 2.978207702	-0.20407
C	 1.1919410244	 1.0697712151	 1.7865781824	 0.060901
O	 1.4018697183	-0.2958224575	 1.3952203484	-0.264494
H	 0.2400541735	 1.420085236	-1.5534990568	 0.106146
H	 1.5329514103	 0.3592607044	-0.8710663684	 0.116507
H	 0.6773480348	 2.8624507289	 0.5446130498	 0.077482
H	-1.3696801308	-0.2958394494	-0.4867141573	 0.077482
H	 0.0371675018	-1.7717292912	 0.9577522445	 0.077233
H	-1.6711002543	-0.1348811077	 2.4836761988	 0.1117
H	-0.4566739332	-1.1609843349	 3.2747085817	 0.097735
H	-0.4184380361	 1.7978256711	 3.1147738002	 0.111701
H	 0.7795704275	 0.7464155503	 3.8975671105	 0.097735
H	 2.1626197654	 1.5075588203	 2.0285895271	 0.077233
239.6845	330.2353	346.5946	469.1854	516.7247	543.2281	575.5344	730.3915	776.5182	793.8908	802.2419	860.4216	878.3853	902.0677	902.3264	921.1683	923.9048	954.4506	974.2165	1010.108	1024.5825	1045.0014	1051.8539	1098.7553	1121.9477	1168.7186	1200.2916	1233.165	1237.0926	1247.9497	1267.7184	1294.5936	1300.5702	1317.6887	1328.999	1331.1251	1339.3769	1374.5773	1469.5857	1475.6363	1492.7753	3066.4308	3075.8905	3082.196	3083.7643	3097.6878	3098.0981	3106.0875	3119.6761	3136.4395	3168.4788
C1C2OC1C1CCC2O1	C1[C@H]2O[C@@H]1[C@@H]1CC[C@H]2O1	
InChI=1S/C7H10O2/c1-2-5-7-3-6(9-7)4(1)8-5/h4-7H,1-3H2	InChI=1S/C7H10O2/c1-2-5-7-3-6(9-7)4(1)8-5/h4-7H,1-3H2/t4-,5+,6-,7+
