19
gdb 144	2.4638242	2.1378024	1.6447005	1.147	72.88	-0.22554	0.07915	0.30469	904.6808	0.160572	-422.551827	-422.545092	-422.544148	-422.582611	27.764	
C	 0.8800413428	 1.6591642346	 1.6710195957	-0.202805
C	 1.9424229464	 0.5548289417	 1.5597698602	-0.227119
C	 2.2454398648	 0.0645310502	 0.1476635061	-0.104638
C	 2.9624488022	 0.9189320104	-0.8807515302	 0.045004
O	 2.9537044744	 2.3075033852	-0.6692210454	-0.265163
C	 1.5948079495	 2.7235850342	-0.5400586538	 0.183524
C	 1.2203795812	 2.9568128526	 0.9279272771	-0.213178
O	 0.7858436214	 1.706234081	-1.1207975894	-0.259239
C	 1.5448637099	 0.5233253944	-1.1293977502	 0.031549
H	-0.0700433815	 1.2757913225	 1.2851435208	 0.114889
H	 0.720789868	 1.8873884273	 2.7306494193	 0.092176
H	 2.8780455567	 0.8940933275	 2.0238822445	 0.105936
H	 1.6018143311	-0.302701797	 2.1507283945	 0.100926
H	 2.5371743288	-0.982682878	 0.0924143492	 0.088683
H	 3.8319802748	 0.5855196548	-1.4335675117	 0.103676
H	 1.468609052	 3.6403110267	-1.128121896	 0.0922
H	 2.0598010271	 3.4815674714	 1.3981666518	 0.107881
H	 0.3573261686	 3.6318781893	 0.9653593236	 0.098945
H	 1.2018601216	-0.1783424291	-1.8793568261	 0.106754
152.0525	246.6957	272.6791	375.7639	394.6022	509.4597	595.9104	656.5103	713.5587	744.4512	761.7626	802.1044	812.9986	851.5649	898.1272	915.3481	928.0061	966.5057	1032.9212	1048.7911	1072.0326	1085.3824	1086.8963	1102.2643	1127.5444	1153.5303	1197.2636	1205.532	1242.898	1289.7869	1295.734	1340.1206	1359.1273	1374.6082	1383.4583	1387.9239	1408.1122	1424.224	1471.6399	1484.067	1492.0481	3017.7964	3028.6302	3040.0111	3046.749	3061.1595	3073.9085	3090.8985	3124.5673	3184.5805	3194.8478
C1CC2C3OC(C1)OC23	C1C[C@@H]2[C@@H]3O[C@H](C1)O[C@H]23	
InChI=1S/C7H10O2/c1-2-4-6-7(4)9-5(3-1)8-6/h4-7H,1-3H2	InChI=1S/C7H10O2/c1-2-4-6-7(4)9-5(3-1)8-6/h4-7H,1-3H2/t4-,5+,6+,7-
