19
gdb 324	2.353983	2.215919	1.4606985	1.3369	74.32	-0.22064	0.071	0.29164	938.7668	0.15862	-422.491235	-422.484096	-422.483152	-422.522265	29.374	
C	 0.0205381353	-0.2061096862	-0.3330405818	-0.444072
C	 1.4048401753	-0.0539644953	 0.2950357015	 0.071011
O	 2.4835404182	 0.6608517453	-0.2148287853	-0.265976
C	 3.1035861193	 1.4724394777	 0.808993793	-0.07507
C	 2.3860004472	 1.6205452795	 2.185886248	-0.244991
C	 0.8679683442	 1.9548147345	 2.208684263	 0.079259
C	 0.3459090193	 2.2460437732	 0.7908362691	-0.29704
C	 0.2581385824	 0.7300145872	 0.8069886526	 0.400275
O	 0.0549055262	 0.7233753946	 2.2309728376	-0.324164
H	-0.21491143	 0.2778113672	-1.2763096509	 0.130045
H	-0.4456740644	-1.1753781363	-0.1922111175	 0.131223
H	 1.6734222211	-0.9175258944	 0.9060556283	 0.089955
H	 4.1025739499	 1.0614403512	 1.007030602	 0.105258
H	 3.2484609782	 2.4640531659	 0.3638509722	 0.108321
H	 2.5238383626	 0.7158053121	 2.786769478	 0.125726
H	 2.9338020665	 2.4183765953	 2.7023256842	 0.105377
H	 0.5931553669	 2.6040879064	 3.0429691236	 0.07958
H	-0.6448773322	 2.705038322	 0.8022124791	 0.107916
H	 0.9950798442	 2.7326080601	 0.0640213936	 0.117367
166.5223	228.0112	296.4907	355.7294	374.9898	402.3391	469.7764	541.0005	582.5822	647.3394	741.5504	800.4742	830.1725	845.313	866.3757	902.7683	911.996	968.7808	1005.9593	1026.3474	1038.9289	1054.8421	1065.537	1087.9167	1108.7756	1130.3373	1173.0362	1199.2134	1225.7741	1239.8747	1269.2153	1307.3304	1333.8346	1352.1437	1376.6051	1399.3502	1427.5209	1468.348	1485.5864	1494.297	1520.4206	3012.0536	3038.4562	3046.2027	3078.2979	3081.6787	3088.2694	3093.2728	3127.7912	3149.8798	3218.4423
C1C2OCCC3CC12O3	C1[C@H]2OCC[C@H]3C[C@@]12O3	
InChI=1S/C7H10O2/c1-2-8-6-4-7(6)3-5(1)9-7/h5-6H,1-4H2	InChI=1S/C7H10O2/c1-2-8-6-4-7(6)3-5(1)9-7/h5-6H,1-4H2/t5-,6+,7+/m0/s1
