19
gdb 60	5.4638832	0.7738403	0.7190734	1.1659	81.59	-0.21629	0.01568	0.23197	1633.2698	0.155876	-422.568592	-422.55908	-422.558136	-422.603861	33.237	
C	 1.4565927829	-0.2269128772	 0.1311307735	-0.220496
O	 0.0556770469	-0.0960245465	 0.095304686	-0.230851
C	-0.4207128082	 0.8483037963	 1.0394462922	-0.183648
C	-1.9033795957	 0.898391513	 1.008131057	 0.38242
C	-2.7935721019	 1.7928589231	 0.5004663724	-0.376806
C	-4.1086280455	 1.287174313	 0.7844375423	 0.265623
C	-5.4233210732	 1.9095777363	 0.4301581022	-0.501088
C	-3.8990041537	 0.1177118005	 1.4477306633	-0.109209
O	-2.5718492962	-0.1338466373	 1.596909923	-0.176924
H	 1.8122601583	-0.5635608812	 1.118394398	 0.10342
H	 1.7330118809	-0.973388153	-0.6171697926	 0.128679
H	 1.9649827081	 0.7213625468	-0.1084763253	 0.100816
H	-0.07392919	 0.5755645443	 2.0503834563	 0.099576
H	-0.027627047	 1.8530787388	 0.8160788159	 0.098391
H	-2.5477812144	 2.7061139219	-0.0206296495	 0.106699
H	-6.2577594004	 1.2936214994	 0.7769267949	 0.124453
H	-5.5327804451	 2.902667883	 0.8807097624	 0.129115
H	-5.5298025827	 2.0349736429	-0.6533106162	 0.130942
H	-4.5666023729	-0.6194100641	 1.8643493241	 0.12889
49.9541	84.4203	100.6	131.8359	227.6457	244.4969	258.4885	339.9915	368.2962	403.5559	619.5225	627.0634	687.2319	754.1866	791.8578	825.8774	942.7047	979.0161	987.0683	1010.5826	1020.7406	1065.4016	1138.8231	1166.6438	1175.1512	1182.8275	1218.9634	1230.6929	1273.9523	1312.1516	1399.1247	1412.8041	1421.4431	1477.4085	1483.2034	1485.1424	1495.3171	1498.9391	1515.7162	1583.1204	1665.4044	2957.0823	2968.5593	2996.499	3007.0077	3029.0318	3079.5961	3109.804	3115.9702	3246.091	3268.5161
COCC1=CC(C)=CO1	COCc1cc(C)co1	
InChI=1S/C7H10O2/c1-6-3-7(5-8-2)9-4-6/h3-4H,5H2,1-2H3	InChI=1S/C7H10O2/c1-6-3-7(5-8-2)9-4-6/h3-4H,5H2,1-2H3
