19
gdb 308	2.9362532	1.6311456	1.201622	2.225	73.58	-0.24775	0.07295	0.3207	1044.2363	0.159528	-422.532037	-422.524785	-422.523841	-422.563842	28.468	
C	 0.4977052278	 1.1043512446	-1.1799097675	-0.090293
O	 0.37607912	-0.1801817261	-0.5284047339	-0.298495
C	 0.510188682	 0.4411613324	 0.77076526	 0.119484
C	 1.4544600378	-0.291186704	 1.6860092094	 0.004157
O	 1.5372157624	 0.2577064564	 3.0027026926	-0.258509
C	 2.687106311	 0.3702836337	 2.1519866906	 0.055046
C	 3.0368326814	 1.7596329351	 1.639923515	-0.240904
C	 2.5144250701	 1.9617253697	 0.2065525027	-0.221126
C	 0.9996198395	 1.7640375195	 0.121833259	-0.055286
H	 1.195794978	 1.0724154772	-2.0244133043	 0.104321
H	-0.4761672434	 1.4718743157	-1.5303158198	 0.098195
H	-0.4693628763	 0.5361549268	 1.261635689	 0.083449
H	 1.403142947	-1.3792560905	 1.6315803853	 0.100689
H	 3.5189272859	-0.2600110366	 2.4655404413	 0.094318
H	 2.6016909729	 2.5028849517	 2.3174668471	 0.117928
H	 4.1217965928	 1.9006197254	 1.6645904151	 0.102277
H	 2.7877814048	 2.9540641422	-0.1677714224	 0.099465
H	 3.0102509888	 1.2313294314	-0.445076626	 0.106957
H	 0.4644504178	 2.6602292251	 0.4432979467	 0.078326
85.7179	186.4289	224.964	339.0465	385.7925	433.7854	452.092	499.7942	702.5033	773.8736	787.8373	811.6083	837.8036	871.6108	932.2127	965.9701	990.2509	1010.3714	1022.3362	1028.7231	1052.7344	1080.3787	1090.0689	1144.6392	1162.8366	1169.9343	1205.457	1234.0785	1261.8289	1267.916	1287.4591	1339.154	1345.2762	1358.2831	1375.6494	1390.6843	1396.7589	1458.5289	1482.1355	1492.5867	1523.5589	2994.979	3008.1605	3027.5817	3043.1064	3059.7132	3067.9215	3085.2618	3090.8222	3104.6502	3117.4412
C1OC2C3OC3CCC12	C1O[C@H]2[C@@H]3O[C@@H]3CC[C@@H]12	
InChI=1S/C7H10O2/c1-2-5-7(9-5)6-4(1)3-8-6/h4-7H,1-3H2	InChI=1S/C7H10O2/c1-2-5-7(9-5)6-4(1)3-8-6/h4-7H,1-3H2/t4-,5+,6+,7+/m0/s1
