19
gdb 102	4.5069697	0.8974677	0.7949903	3.293	78.97	-0.22522	0.01785	0.24307	1440.5725	0.156779	-422.530079	-422.521381	-422.520437	-422.564713	30.946	
C	-0.9813983591	-0.9308103571	 1.125199397	-0.350382
C	-1.9211058997	-1.8569198641	 0.3768884397	 0.098302
C	-1.9649940306	-3.3003654035	 0.6367350768	-0.181204
O	-1.3135390388	-2.7839493148	-0.526523572	-0.228962
C	-0.4560940537	 0.1772882122	 0.2621810368	 0.315863
C	-0.6207581085	 1.4901777098	 0.4007496134	-0.219262
C	 0.098585902	 2.2226163242	-0.6947398823	-0.09866
O	 0.6902404434	 1.2058043595	-1.4982417307	-0.265668
C	 0.3976929571	-0.0790750564	-0.9569227697	-0.148278
H	-1.5083404632	-0.5115601951	 1.9902416641	 0.110123
H	-0.1483144506	-1.5341646614	 1.5099902148	 0.112718
H	-2.8192163745	-1.381139943	-0.020358603	 0.099275
H	-1.3044499705	-3.7288774302	 1.3897333997	 0.115129
H	-2.8804120502	-3.8597141015	 0.4503990531	 0.117664
H	-1.176695397	 1.9908116608	 1.1843974798	 0.096175
H	-0.5789400302	 2.837075585	-1.3096508518	 0.102404
H	 0.8781633213	 2.8984357692	-0.3059467722	 0.101355
H	-0.1149491789	-0.6973831675	-1.7077603952	 0.123062
H	 1.3319782018	-0.6038652961	-0.6974458684	 0.100345
53.0506	77.5348	102.3314	125.9126	271.1363	283.6363	345.5004	420.9619	504.1283	667.1907	773.5512	789.5986	822.2056	868.3357	896.8831	926.1046	934.2848	957.9084	988.1181	1022.4572	1059.6642	1093.7275	1101.9212	1113.4464	1158.3293	1168.961	1174.8446	1207.2757	1222.8357	1230.4773	1292.6489	1308.9791	1329.4467	1372.0577	1397.3778	1437.8929	1462.797	1516.1765	1527.6047	1528.9983	1730.2423	2962.5718	2971.0893	2977.8005	3011.8885	3018.0222	3067.3488	3083.176	3102.0879	3170.353	3206.7663
C(C1CO1)C1=CCOC1	C([C@@H]1CO1)C1=CCOC1	
InChI=1S/C7H10O2/c1-2-8-4-6(1)3-7-5-9-7/h1,7H,2-5H2	InChI=1S/C7H10O2/c1-2-8-4-6(1)3-7-5-9-7/h1,7H,2-5H2/t7-/m1/s1
