19
gdb 389	3.7050794	1.328215	1.1473292	1.4804	74.69	-0.23514	0.07107	0.30621	1104.5111	0.158155	-422.519113	-422.511482	-422.510538	-422.551475	29.562	
C	 0.6282864699	 1.3444800997	-0.0191716045	-0.342378
C	 1.5605364277	 0.1556817861	-0.2310382134	-0.334445
C	 0.1060231274	-0.0530126672	 0.0200719241	 0.461375
O	-0.3773967148	-0.6331595357	 1.236239726	-0.322371
C	-1.5478782563	-1.1457133888	 0.5481596827	 0.09812
C	-1.6318781704	-2.6785446064	 0.4778991042	-0.10136
O	-1.4952245086	-3.0157877009	-0.896812051	-0.249388
C	-0.6435266578	-2.048697916	-1.4996052118	-0.095562
C	-0.9834804677	-0.7067231393	-0.8224569698	-0.1896
H	 0.6993617524	 1.870343904	 0.9267807633	 0.125887
H	 0.383551043	 1.9694301475	-0.8723280132	 0.114187
H	 1.9540484844	-0.0277433602	-1.2257595588	 0.116176
H	 2.2387030969	-0.0946245397	 0.5777177946	 0.127405
H	-2.460097116	-0.6629031786	 0.9099351001	 0.087031
H	-0.8195326329	-3.1040047942	 1.0864383337	 0.104183
H	-2.5876228683	-3.083166761	 0.8219100064	 0.10786
H	 0.4154046533	-2.3025610296	-1.3365514964	 0.097406
H	-0.842925403	-2.0612583382	-2.5740040422	 0.10869
H	-1.5907665593	-0.0456441913	-1.4404358037	 0.086783
68.6403	153.386	210.396	245.6062	332.2022	396.3301	499.1701	540.8903	663.901	717.8395	761.8642	789.8045	859.6252	871.9267	894.0353	920.9672	950.8139	964.0646	975.6639	1021.8696	1048.0643	1057.709	1068.6397	1070.1934	1086.6452	1121.8708	1186.2973	1204.0056	1214.0783	1223.2381	1267.0203	1270.313	1301.6972	1330.7942	1363.327	1391.0035	1399.438	1448.9008	1499.6423	1503.608	1519.6421	2984.6037	2996.4584	3064.0746	3090.6256	3093.4797	3115.5178	3126.4809	3129.5131	3210.366	3224.219
C1CC11OC2COCC12	C1CC21O[C@@H]1COC[C@H]21	
InChI=1S/C7H10O2/c1-2-7(1)5-3-8-4-6(5)9-7/h5-6H,1-4H2	InChI=1S/C7H10O2/c1-2-7(1)5-3-8-4-6(5)9-7/h5-6H,1-4H2/t5-,6+/m0/s1
