19
gdb 4	2.4282482	1.5023706	0.9739403	1.165	78.88	-0.2137	0.01582	0.22952	1221.2049	0.156027	-422.588618	-422.579213	-422.578269	-422.62324	34.394	
C	-1.7204116392	-0.2917965436	-3.9930252474	-0.388641
C	-1.9659659698	 0.7481304823	-2.8977446703	 0.010545
O	-1.3436887894	 1.9973949468	-3.2141982244	-0.416697
C	-1.5503824846	 0.2745067848	-1.5303082226	 0.24182
C	-1.3979658504	 0.9157177392	-0.3315247895	 0.155113
C	-1.6331583015	 2.3650860296	-0.0276303228	-0.517111
C	-0.9860641375	-0.0974230296	 0.6013932064	-0.258178
C	-0.9238836802	-1.2614011177	-0.0918305282	-0.027154
O	-1.2605903329	-1.056916259	-1.3899729831	-0.182812
H	-2.2877762947	-1.2070813563	-3.8058369389	 0.127296
H	-2.0247978368	 0.1276964637	-4.9547324671	 0.120759
H	-0.6603998735	-0.5606552273	-4.0466706783	 0.114631
H	-3.0358966116	 0.9938841123	-2.8863692639	 0.105295
H	-0.3936939849	 1.8777278551	-3.1003266373	 0.276645
H	-0.7834314479	 2.7985715311	 0.5118644415	 0.122598
H	-1.7804012046	 2.9356620244	-0.9457255082	 0.149375
H	-2.5157079345	 2.4997468011	 0.6092798004	 0.126453
H	-0.7673688729	 0.0392934799	 1.6497303437	 0.108153
H	-0.6661881133	-2.2742101168	 0.1713360403	 0.131909
32.6667	135.4001	163.8319	189.326	243.5974	267.0942	290.7716	316.1249	384.1015	443.1435	497.3516	616.2833	623.6383	673.7586	726.2624	754.8839	825.003	890.5934	912.8348	990.3295	1018.4265	1060.766	1067.4265	1080.0794	1093.4511	1146.9504	1187.2404	1256.5274	1277.7421	1281.4322	1345.0475	1402.5322	1412.1818	1421.6718	1432.0729	1488.8692	1491.738	1494.3952	1501.9212	1537.2327	1648.5548	3020.9784	3028.3542	3044.322	3075.0297	3116.8754	3133.5511	3141.2724	3245.7334	3279.9954	3793.0927
CC(O)C1=C(C)C=CO1	C[C@H](O)c1c(C)cco1	
InChI=1S/C7H10O2/c1-5-3-4-9-7(5)6(2)8/h3-4,6,8H,1-2H3	InChI=1S/C7H10O2/c1-5-3-4-9-7(5)6(2)8/h3-4,6,8H,1-2H3/t6-/m0/s1
