19
gdb 122	2.957398	1.7351953	1.5177629	1.5597	73.08	-0.23692	0.08011	0.31703	950.4774	0.159293	-422.546229	-422.539115	-422.538171	-422.577347	28.914	
C	-0.2465741328	 2.1274779285	-1.5231854384	-0.225845
C	 0.3146755849	 2.4122218994	-0.0990286227	-0.294389
C	 0.7253613917	 1.0398011727	 0.3912054758	 0.366922
O	 1.866874776	 0.8291152591	 1.1904042297	-0.305922
C	 2.7983206064	 0.1946721402	 0.3203125205	-0.008999
O	 2.0519775998	-0.5904471162	-0.6036624716	-0.305922
C	 0.8455713648	 0.1179043067	-0.773902299	 0.366922
C	 0.5153294983	 0.8733900502	-2.0438286556	-0.294389
C	-0.2148563014	-0.1439052864	 0.2773288783	-0.39215
H	-1.3185126654	 1.9130259873	-1.4640961491	 0.11157
H	-0.1359341658	 2.9855667542	-2.1907368911	 0.107009
H	 1.2122208934	 3.0392305178	-0.1511341371	 0.109608
H	-0.4107204705	 2.9273354175	 0.53796419	 0.104558
H	 3.3937831101	 0.9523184529	-0.2177414373	 0.088283
H	 3.4511505778	-0.458936305	 0.904838513	 0.121183
H	 1.4571788773	 1.1606258211	-2.525344694	 0.109608
H	-0.0689366495	 0.306165184	-2.7747118738	 0.104558
H	-1.2604356021	 0.0233578321	 0.0371033203	 0.112263
H	-0.0148157132	-0.9683171845	 0.9502880841	 0.125132
168.6769	202.6894	228.5559	354.1059	365.411	455.7467	522.9229	573.6629	586.0194	707.1975	763.5071	767.1047	847.1236	888.6483	895.6128	906.6398	917.7855	968.7703	982.6856	996.8307	1024.988	1052.5146	1060.4733	1080.2829	1168.7233	1191.8227	1208.7674	1221.7551	1229.3589	1243.2763	1261.397	1319.4283	1324.1878	1348.2191	1371.5725	1420.4915	1465.9691	1492.798	1494.1764	1511.9838	1536.1402	2951.7959	3041.7148	3043.2993	3052.5264	3085.0952	3085.336	3098.0472	3106.1746	3130.8958	3234.7955
C1CC23OCOC2(C1)C3	C1C[C@]23OCO[C@@]2(C1)C3	
InChI=1S/C7H10O2/c1-2-6-4-7(6,3-1)9-5-8-6/h1-5H2	InChI=1S/C7H10O2/c1-2-6-4-7(6,3-1)9-5-8-6/h1-5H2/t6-,7+
